gem5 Simulator System.  https://www.gem5.org
gem5 is copyrighted software; use the --copyright option for details.

gem5 version 24.0.0.0
gem5 compiled Jul 25 2024 19:45:59
gem5 started Jul 31 2024 17:16:50
gem5 executing on codespaces-1d9eeb, pid 3639
command line: gem5 -re --outdir=simpoint-analysis-m5out simpoint-analysis.py

Global frequency set at 1000000000000 ticks per second
Sum: 332833500000
Simulation Done
