
---------- Begin Simulation Statistics ----------
simSeconds                                  29.844762                       # Number of seconds simulated (Second)
simTicks                                 29844761968000                       # Number of ticks simulated (Tick)
finalTick                                29844761968000                       # Number of ticks from beginning of simulation (restored from checkpoints and never reset) (Tick)
simFreq                                  1000000000000                       # The number of ticks per simulated second ((Tick/Second))
hostSeconds                                     90.65                       # Real time elapsed on the host (Second)
hostTickRate                             329237491780                       # The number of ticks simulated per host second (ticks/s) ((Tick/Second))
hostMemory                                   29314216                       # Number of bytes of host memory used (Byte)
system.clk_domain.clock                          1000                       # Clock period in ticks (Tick)
system.cpu0.numCycles                    131557302929                       # Number of cpu cycles simulated (Cycle)
system.cpu0.cpi                                   inf                       # CPI: cycles per instruction (core level) ((Cycle/Count))
system.cpu0.ipc                              0.000000                       # IPC: instructions per cycle (core level) ((Count/Cycle))
system.cpu0.numWorkItemsStarted                     0                       # Number of work items this cpu started (Count)
system.cpu0.numWorkItemsCompleted                   0                       # Number of work items this cpu completed (Count)
system.cpu0.numVMExits                        2840044                       # total number of KVM exits (Count)
system.cpu0.numVMHalfEntries                      367                       # number of KVM entries to finalize pending operations (Count)
system.cpu0.numExitSignal                     2216711                       # exits due to signal delivery (Count)
system.cpu0.numMMIO                             70953                       # number of VM exits due to memory mapped IO (Count)
system.cpu0.numCoalescedMMIO                        0                       # number of coalesced memory mapped IO requests (Count)
system.cpu0.numIO                              534705                       # number of VM exits due to legacy IO (Count)
system.cpu0.numHalt                                37                       # number of VM exits due to wait for interrupt instructions (Count)
system.cpu0.numInterrupts                       22043                       # number of interrupts delivered (Count)
system.cpu0.numHypercalls                           0                       # number of hypercalls (Count)
system.cpu0.commitStats0.numOps                     0                       # Number of ops (including micro ops) committed (thread level) (Count)
system.cpu0.commitStats0.numInstsNotNOP             0                       # Number of instructions committed excluding NOPs or prefetches (Count)
system.cpu0.commitStats0.numOpsNotNOP               0                       # Number of Ops (including micro ops) Simulated (Count)
system.cpu0.commitStats0.cpi                      inf                       # CPI: cycles per instruction (thread level) ((Cycle/Count))
system.cpu0.commitStats0.ipc                 0.000000                       # IPC: instructions per cycle (thread level) ((Count/Cycle))
system.cpu0.commitStats0.numMemRefs                 0                       # Number of memory references committed (Count)
system.cpu0.commitStats0.numFpInsts                 0                       # Number of float instructions (Count)
system.cpu0.commitStats0.numIntInsts                0                       # Number of integer instructions (Count)
system.cpu0.commitStats0.numLoadInsts               0                       # Number of load instructions (Count)
system.cpu0.commitStats0.numStoreInsts              0                       # Number of store instructions (Count)
system.cpu0.commitStats0.numVecInsts                0                       # Number of vector instructions (Count)
system.cpu0.commitStats0.committedInstType::No_OpClass            0                       # Class of committed instruction. (Count)
system.cpu0.commitStats0.committedInstType::IntAlu            0                       # Class of committed instruction. (Count)
system.cpu0.commitStats0.committedInstType::IntMult            0                       # Class of committed instruction. (Count)
system.cpu0.commitStats0.committedInstType::IntDiv            0                       # Class of committed instruction. (Count)
system.cpu0.commitStats0.committedInstType::FloatAdd            0                       # Class of committed instruction. (Count)
system.cpu0.commitStats0.committedInstType::FloatCmp            0                       # Class of committed instruction. (Count)
system.cpu0.commitStats0.committedInstType::FloatCvt            0                       # Class of committed instruction. (Count)
system.cpu0.commitStats0.committedInstType::FloatMult            0                       # Class of committed instruction. (Count)
system.cpu0.commitStats0.committedInstType::FloatMultAcc            0                       # Class of committed instruction. (Count)
system.cpu0.commitStats0.committedInstType::FloatDiv            0                       # Class of committed instruction. (Count)
system.cpu0.commitStats0.committedInstType::FloatMisc            0                       # Class of committed instruction. (Count)
system.cpu0.commitStats0.committedInstType::FloatSqrt            0                       # Class of committed instruction. (Count)
system.cpu0.commitStats0.committedInstType::SimdAdd            0                       # Class of committed instruction. (Count)
system.cpu0.commitStats0.committedInstType::SimdAddAcc            0                       # Class of committed instruction. (Count)
system.cpu0.commitStats0.committedInstType::SimdAlu            0                       # Class of committed instruction. (Count)
system.cpu0.commitStats0.committedInstType::SimdCmp            0                       # Class of committed instruction. (Count)
system.cpu0.commitStats0.committedInstType::SimdCvt            0                       # Class of committed instruction. (Count)
system.cpu0.commitStats0.committedInstType::SimdMisc            0                       # Class of committed instruction. (Count)
system.cpu0.commitStats0.committedInstType::SimdMult            0                       # Class of committed instruction. (Count)
system.cpu0.commitStats0.committedInstType::SimdMultAcc            0                       # Class of committed instruction. (Count)
system.cpu0.commitStats0.committedInstType::SimdMatMultAcc            0                       # Class of committed instruction. (Count)
system.cpu0.commitStats0.committedInstType::SimdShift            0                       # Class of committed instruction. (Count)
system.cpu0.commitStats0.committedInstType::SimdShiftAcc            0                       # Class of committed instruction. (Count)
system.cpu0.commitStats0.committedInstType::SimdDiv            0                       # Class of committed instruction. (Count)
system.cpu0.commitStats0.committedInstType::SimdSqrt            0                       # Class of committed instruction. (Count)
system.cpu0.commitStats0.committedInstType::SimdFloatAdd            0                       # Class of committed instruction. (Count)
system.cpu0.commitStats0.committedInstType::SimdFloatAlu            0                       # Class of committed instruction. (Count)
system.cpu0.commitStats0.committedInstType::SimdFloatCmp            0                       # Class of committed instruction. (Count)
system.cpu0.commitStats0.committedInstType::SimdFloatCvt            0                       # Class of committed instruction. (Count)
system.cpu0.commitStats0.committedInstType::SimdFloatDiv            0                       # Class of committed instruction. (Count)
system.cpu0.commitStats0.committedInstType::SimdFloatMisc            0                       # Class of committed instruction. (Count)
system.cpu0.commitStats0.committedInstType::SimdFloatMult            0                       # Class of committed instruction. (Count)
system.cpu0.commitStats0.committedInstType::SimdFloatMultAcc            0                       # Class of committed instruction. (Count)
system.cpu0.commitStats0.committedInstType::SimdFloatMatMultAcc            0                       # Class of committed instruction. (Count)
system.cpu0.commitStats0.committedInstType::SimdFloatSqrt            0                       # Class of committed instruction. (Count)
system.cpu0.commitStats0.committedInstType::SimdReduceAdd            0                       # Class of committed instruction. (Count)
system.cpu0.commitStats0.committedInstType::SimdReduceAlu            0                       # Class of committed instruction. (Count)
system.cpu0.commitStats0.committedInstType::SimdReduceCmp            0                       # Class of committed instruction. (Count)
system.cpu0.commitStats0.committedInstType::SimdFloatReduceAdd            0                       # Class of committed instruction. (Count)
system.cpu0.commitStats0.committedInstType::SimdFloatReduceCmp            0                       # Class of committed instruction. (Count)
system.cpu0.commitStats0.committedInstType::SimdAes            0                       # Class of committed instruction. (Count)
system.cpu0.commitStats0.committedInstType::SimdAesMix            0                       # Class of committed instruction. (Count)
system.cpu0.commitStats0.committedInstType::SimdSha1Hash            0                       # Class of committed instruction. (Count)
system.cpu0.commitStats0.committedInstType::SimdSha1Hash2            0                       # Class of committed instruction. (Count)
system.cpu0.commitStats0.committedInstType::SimdSha256Hash            0                       # Class of committed instruction. (Count)
system.cpu0.commitStats0.committedInstType::SimdSha256Hash2            0                       # Class of committed instruction. (Count)
system.cpu0.commitStats0.committedInstType::SimdShaSigma2            0                       # Class of committed instruction. (Count)
system.cpu0.commitStats0.committedInstType::SimdShaSigma3            0                       # Class of committed instruction. (Count)
system.cpu0.commitStats0.committedInstType::SimdPredAlu            0                       # Class of committed instruction. (Count)
system.cpu0.commitStats0.committedInstType::Matrix            0                       # Class of committed instruction. (Count)
system.cpu0.commitStats0.committedInstType::MatrixMov            0                       # Class of committed instruction. (Count)
system.cpu0.commitStats0.committedInstType::MatrixOP            0                       # Class of committed instruction. (Count)
system.cpu0.commitStats0.committedInstType::MemRead            0                       # Class of committed instruction. (Count)
system.cpu0.commitStats0.committedInstType::MemWrite            0                       # Class of committed instruction. (Count)
system.cpu0.commitStats0.committedInstType::FloatMemRead            0                       # Class of committed instruction. (Count)
system.cpu0.commitStats0.committedInstType::FloatMemWrite            0                       # Class of committed instruction. (Count)
system.cpu0.commitStats0.committedInstType::IprAccess            0                       # Class of committed instruction. (Count)
system.cpu0.commitStats0.committedInstType::InstPrefetch            0                       # Class of committed instruction. (Count)
system.cpu0.commitStats0.committedInstType::SimdUnitStrideLoad            0                       # Class of committed instruction. (Count)
system.cpu0.commitStats0.committedInstType::SimdUnitStrideStore            0                       # Class of committed instruction. (Count)
system.cpu0.commitStats0.committedInstType::SimdUnitStrideMaskLoad            0                       # Class of committed instruction. (Count)
system.cpu0.commitStats0.committedInstType::SimdUnitStrideMaskStore            0                       # Class of committed instruction. (Count)
system.cpu0.commitStats0.committedInstType::SimdStridedLoad            0                       # Class of committed instruction. (Count)
system.cpu0.commitStats0.committedInstType::SimdStridedStore            0                       # Class of committed instruction. (Count)
system.cpu0.commitStats0.committedInstType::SimdIndexedLoad            0                       # Class of committed instruction. (Count)
system.cpu0.commitStats0.committedInstType::SimdIndexedStore            0                       # Class of committed instruction. (Count)
system.cpu0.commitStats0.committedInstType::SimdWholeRegisterLoad            0                       # Class of committed instruction. (Count)
system.cpu0.commitStats0.committedInstType::SimdWholeRegisterStore            0                       # Class of committed instruction. (Count)
system.cpu0.commitStats0.committedInstType::SimdUnitStrideFaultOnlyFirstLoad            0                       # Class of committed instruction. (Count)
system.cpu0.commitStats0.committedInstType::SimdUnitStrideSegmentedLoad            0                       # Class of committed instruction. (Count)
system.cpu0.commitStats0.committedInstType::SimdUnitStrideSegmentedStore            0                       # Class of committed instruction. (Count)
system.cpu0.commitStats0.committedInstType::SimdExt            0                       # Class of committed instruction. (Count)
system.cpu0.commitStats0.committedInstType::SimdFloatExt            0                       # Class of committed instruction. (Count)
system.cpu0.commitStats0.committedInstType::SimdConfig            0                       # Class of committed instruction. (Count)
system.cpu0.commitStats0.committedInstType::total            0                       # Class of committed instruction. (Count)
system.cpu0.executeStats0.numInsts                  0                       # Number of executed instructions (Count)
system.cpu0.executeStats0.numNop                    0                       # Number of nop insts executed (Count)
system.cpu0.executeStats0.numBranches               0                       # Number of branches executed (Count)
system.cpu0.executeStats0.numLoadInsts              0                       # Number of load instructions executed (Count)
system.cpu0.executeStats0.numStoreInsts             0                       # Number of stores executed (Count)
system.cpu0.executeStats0.instRate                  0                       # Inst execution rate ((Count/Cycle))
system.cpu0.executeStats0.numFpRegWrites            0                       # Number of times the floating registers were written (Count)
system.cpu0.executeStats0.numMemRefs                0                       # Number of memory refs (Count)
system.cpu0.executeStats0.numVecAluAccesses            0                       # Number of vector alu accesses (Count)
system.cpu0.executeStats0.numDiscardedOps            0                       # Number of ops (including micro ops) which were discarded before commit (Count)
system.cpu0.fetchStats0.numInsts                    0                       # Number of instructions fetched (thread level) (Count)
system.cpu0.fetchStats0.numOps                      0                       # Number of ops (including micro ops) fetched (thread level) (Count)
system.cpu0.fetchStats0.fetchRate                   0                       # Number of inst fetches per cycle ((Count/Cycle))
system.cpu0.fetchStats0.branchRate                  0                       # Number of branch fetches per cycle (Ratio)
system.cpu0.fetchStats0.numFetchSuspends            0                       # Number of times Execute suspended instruction fetching (Count)
system.cpu0.interrupts.clk_domain.clock          8000                       # Clock period in ticks (Tick)
system.cpu0.mmu.dtb.rdAccesses                      0                       # TLB accesses on read requests (Count)
system.cpu0.mmu.dtb.wrAccesses                      0                       # TLB accesses on write requests (Count)
system.cpu0.mmu.dtb.rdMisses                        0                       # TLB misses on read requests (Count)
system.cpu0.mmu.dtb.wrMisses                        0                       # TLB misses on write requests (Count)
system.cpu0.mmu.dtb.walker.power_state.pwrStateResidencyTicks::UNDEFINED 29844761968000                       # Cumulative time (in ticks) in various power states (Tick)
system.cpu0.mmu.itb.rdAccesses                      0                       # TLB accesses on read requests (Count)
system.cpu0.mmu.itb.wrAccesses                      0                       # TLB accesses on write requests (Count)
system.cpu0.mmu.itb.rdMisses                        0                       # TLB misses on read requests (Count)
system.cpu0.mmu.itb.wrMisses                        0                       # TLB misses on write requests (Count)
system.cpu0.mmu.itb.walker.power_state.pwrStateResidencyTicks::UNDEFINED 29844761968000                       # Cumulative time (in ticks) in various power states (Tick)
system.cpu0.power_state.pwrStateResidencyTicks::ON 29844761968000                       # Cumulative time (in ticks) in various power states (Tick)
system.cpu0.thread_0.numInsts                       0                       # Number of Instructions committed (Count)
system.cpu0.thread_0.numOps                         0                       # Number of Ops committed (Count)
system.cpu0.thread_0.numMemRefs                     0                       # Number of Memory References (Count)
system.cpu1.allLatencyDist::bucket_size         10000                       # delay distribution for all (Unspecified)
system.cpu1.allLatencyDist::min_bucket              0                       # delay distribution for all (Unspecified)
system.cpu1.allLatencyDist::max_bucket        1599999                       # delay distribution for all (Unspecified)
system.cpu1.allLatencyDist::samples             18916                       # delay distribution for all (Unspecified)
system.cpu1.allLatencyDist::mean         1860871.484458                       # delay distribution for all (Unspecified)
system.cpu1.allLatencyDist::stdev        1577292.611425                       # delay distribution for all (Unspecified)
system.cpu1.allLatencyDist::underflows              0      0.00%      0.00% # delay distribution for all (Unspecified)
system.cpu1.allLatencyDist               |           0      0.00%      0.00% |           0      0.00%      0.00% |           0      0.00%      0.00% |           0      0.00%      0.00% |           0      0.00%      0.00% |           0      0.00%      0.00% |           0      0.00%      0.00% |           0      0.00%      0.00% |           0      0.00%      0.00% |           0      0.00%      0.00% |          98      0.52%      0.52% |          18      0.10%      0.61% |          21      0.11%      0.72% |           4      0.02%      0.75% |          13      0.07%      0.81% |           9      0.05%      0.86% |           2      0.01%      0.87% |           5      0.03%      0.90% |           6      0.03%      0.93% |           6      0.03%      0.96% |           5      0.03%      0.99% |           7      0.04%      1.03% |          67      0.35%      1.38% |          64      0.34%      1.72% |          97      0.51%      2.23% |          54      0.29%      2.52% |         326      1.72%      4.24% |         105      0.56%      4.79% |          84      0.44%      5.24% |         306      1.62%      6.86% |          90      0.48%      7.33% |          85      0.45%      7.78% |         220      1.16%      8.94% |         195      1.03%      9.98% |         207      1.09%     11.07% |         373      1.97%     13.04% |         245      1.30%     14.34% |          86      0.45%     14.79% |         100      0.53%     15.32% |         193      1.02%     16.34% |         122      0.64%     16.99% |          84      0.44%     17.43% |          90      0.48%     17.91% |         118      0.62%     18.53% |          77      0.41%     18.94% |          65      0.34%     19.28% |          82      0.43%     19.71% |          70      0.37%     20.08% |          68      0.36%     20.44% |          65      0.34%     20.79% |          55      0.29%     21.08% |          54      0.29%     21.36% |          46      0.24%     21.61% |          61      0.32%     21.93% |          29      0.15%     22.08% |          26      0.14%     22.22% |          54      0.29%     22.50% |          56      0.30%     22.80% |          30      0.16%     22.96% |          55      0.29%     23.25% |          41      0.22%     23.47% |          35      0.19%     23.65% |          45      0.24%     23.89% |          29      0.15%     24.04% |          22      0.12%     24.16% |          20      0.11%     24.27% |          23      0.12%     24.39% |           9      0.05%     24.43% |          20      0.11%     24.54% |          22      0.12%     24.66% |          15      0.08%     24.74% |          22      0.12%     24.85% |          12      0.06%     24.92% |          31      0.16%     25.08% |          21      0.11%     25.19% |          12      0.06%     25.25% |          13      0.07%     25.32% |          15      0.08%     25.40% |          72      0.38%     25.78% |          34      0.18%     25.96% |          26      0.14%     26.10% |          27      0.14%     26.24% |          27      0.14%     26.39% |          25      0.13%     26.52% |          29      0.15%     26.67% |          15      0.08%     26.75% |          10      0.05%     26.80% |          15      0.08%     26.88% |          19      0.10%     26.98% |          10      0.05%     27.04% |          16      0.08%     27.12% |          19      0.10%     27.22% |          11      0.06%     27.28% |          55      0.29%     27.57% |          46      0.24%     27.81% |          28      0.15%     27.96% |          28      0.15%     28.11% |          19      0.10%     28.21% |          10      0.05%     28.26% |          33      0.17%     28.44% |          21      0.11%     28.55% |          22      0.12%     28.66% |          15      0.08%     28.74% |          23      0.12%     28.86% |          18      0.10%     28.96% |          15      0.08%     29.04% |           9      0.05%     29.09% |          10      0.05%     29.14% |          34      0.18%     29.32% |          62      0.33%     29.65% |          28      0.15%     29.79% |          27      0.14%     29.94% |          23      0.12%     30.06% |          15      0.08%     30.14% |          26      0.14%     30.28% |          18      0.10%     30.37% |          14      0.07%     30.45% |          11      0.06%     30.50% |          42      0.22%     30.73% |         108      0.57%     31.30% |          79      0.42%     31.71% |          33      0.17%     31.89% |          47      0.25%     32.14% |          37      0.20%     32.33% |          52      0.27%     32.61% |          51      0.27%     32.88% |          43      0.23%     33.10% |          19      0.10%     33.20% |          23      0.12%     33.33% |          47      0.25%     33.57% |          28      0.15%     33.72% |          21      0.11%     33.83% |          23      0.12%     33.96% |          38      0.20%     34.16% |          37      0.20%     34.35% |          27      0.14%     34.49% |          69      0.36%     34.86% |          28      0.15%     35.01% |          71      0.38%     35.38% |          58      0.31%     35.69% |          83      0.44%     36.13% |          68      0.36%     36.49% |          75      0.40%     36.88% |          46      0.24%     37.13% |          63      0.33%     37.46% |          34      0.18%     37.64% |          25      0.13%     37.77% |          59      0.31%     38.08% |          22      0.12%     38.20% |          17      0.09%     38.29% |          28      0.15%     38.44% |         109      0.58%     39.01% |          66      0.35%     39.36% |          44      0.23%     39.60% |          57      0.30%     39.90% |          54      0.29%     40.18% |          87      0.46%     40.64% |         245      1.30%     41.94% |         168      0.89%     42.83% |          76      0.40%     43.23% # delay distribution for all (Unspecified)
system.cpu1.allLatencyDist::overflows           10739     56.77%    100.00% # delay distribution for all (Unspecified)
system.cpu1.allLatencyDist::min_value          104000                       # delay distribution for all (Unspecified)
system.cpu1.allLatencyDist::max_value        20883000                       # delay distribution for all (Unspecified)
system.cpu1.allLatencyDist::total               18916                       # delay distribution for all (Unspecified)
system.cpu1.loadLatencyDist::bucket_size        10000                       # delay distribution for loads (Unspecified)
system.cpu1.loadLatencyDist::min_bucket             0                       # delay distribution for loads (Unspecified)
system.cpu1.loadLatencyDist::max_bucket       1599999                       # delay distribution for loads (Unspecified)
system.cpu1.loadLatencyDist::samples             9460                       # delay distribution for loads (Unspecified)
system.cpu1.loadLatencyDist::mean        2021827.906977                       # delay distribution for loads (Unspecified)
system.cpu1.loadLatencyDist::stdev       1895512.191217                       # delay distribution for loads (Unspecified)
system.cpu1.loadLatencyDist::underflows             0      0.00%      0.00% # delay distribution for loads (Unspecified)
system.cpu1.loadLatencyDist              |           0      0.00%      0.00% |           0      0.00%      0.00% |           0      0.00%      0.00% |           0      0.00%      0.00% |           0      0.00%      0.00% |           0      0.00%      0.00% |           0      0.00%      0.00% |           0      0.00%      0.00% |           0      0.00%      0.00% |           0      0.00%      0.00% |          98      1.04%      1.04% |          18      0.19%      1.23% |          21      0.22%      1.45% |           4      0.04%      1.49% |          13      0.14%      1.63% |           9      0.10%      1.72% |           2      0.02%      1.74% |           5      0.05%      1.80% |           6      0.06%      1.86% |           6      0.06%      1.92% |           5      0.05%      1.98% |           7      0.07%      2.05% |          67      0.71%      2.76% |          64      0.68%      3.44% |          94      0.99%      4.43% |          49      0.52%      4.95% |          45      0.48%      5.42% |          54      0.57%      5.99% |          64      0.68%      6.67% |          30      0.32%      6.99% |          41      0.43%      7.42% |          41      0.43%      7.85% |          51      0.54%      8.39% |          53      0.56%      8.95% |         115      1.22%     10.17% |         330      3.49%     13.66% |          62      0.66%     14.31% |          45      0.48%     14.79% |          67      0.71%     15.50% |          83      0.88%     16.37% |          38      0.40%     16.78% |          42      0.44%     17.22% |          58      0.61%     17.83% |          61      0.64%     18.48% |          52      0.55%     19.03% |          37      0.39%     19.42% |          55      0.58%     20.00% |          38      0.40%     20.40% |          42      0.44%     20.85% |          46      0.49%     21.33% |          39      0.41%     21.74% |          27      0.29%     22.03% |          28      0.30%     22.33% |          50      0.53%     22.85% |          21      0.22%     23.08% |          19      0.20%     23.28% |          32      0.34%     23.62% |          43      0.45%     24.07% |          19      0.20%     24.27% |          42      0.44%     24.71% |          31      0.33%     25.04% |          17      0.18%     25.22% |          28      0.30%     25.52% |          17      0.18%     25.70% |           9      0.10%     25.79% |          11      0.12%     25.91% |          16      0.17%     26.08% |           5      0.05%     26.13% |           7      0.07%     26.21% |          12      0.13%     26.33% |           8      0.08%     26.42% |          11      0.12%     26.53% |           3      0.03%     26.56% |          18      0.19%     26.75% |          12      0.13%     26.88% |           7      0.07%     26.96% |          11      0.12%     27.07% |           8      0.08%     27.16% |           6      0.06%     27.22% |          19      0.20%     27.42% |          13      0.14%     27.56% |           7      0.07%     27.63% |          21      0.22%     27.85% |          16      0.17%     28.02% |          10      0.11%     28.13% |          10      0.11%     28.23% |           1      0.01%     28.25% |           7      0.07%     28.32% |           7      0.07%     28.39% |           4      0.04%     28.44% |          10      0.11%     28.54% |          13      0.14%     28.68% |          10      0.11%     28.78% |          13      0.14%     28.92% |          15      0.16%     29.08% |          15      0.16%     29.24% |          10      0.11%     29.34% |           7      0.07%     29.42% |           4      0.04%     29.46% |          12      0.13%     29.59% |           6      0.06%     29.65% |          17      0.18%     29.83% |           7      0.07%     29.90% |          13      0.14%     30.04% |          13      0.14%     30.18% |           6      0.06%     30.24% |           5      0.05%     30.30% |           4      0.04%     30.34% |           7      0.07%     30.41% |          19      0.20%     30.61% |          19      0.20%     30.81% |           9      0.10%     30.91% |          10      0.11%     31.01% |           8      0.08%     31.10% |          15      0.16%     31.26% |           2      0.02%     31.28% |           6      0.06%     31.34% |           9      0.10%     31.44% |          31      0.33%     31.77% |          96      1.01%     32.78% |          74      0.78%     33.56% |          28      0.30%     33.86% |          40      0.42%     34.28% |          26      0.27%     34.56% |          11      0.12%     34.67% |          23      0.24%     34.92% |          26      0.27%     35.19% |           5      0.05%     35.24% |           8      0.08%     35.33% |          38      0.40%     35.73% |          10      0.11%     35.84% |          12      0.13%     35.96% |           8      0.08%     36.05% |          23      0.24%     36.29% |          22      0.23%     36.52% |          20      0.21%     36.73% |          62      0.66%     37.39% |          20      0.21%     37.60% |          56      0.59%     38.19% |          52      0.55%     38.74% |          46      0.49%     39.23% |          29      0.31%     39.53% |          58      0.61%     40.15% |          26      0.27%     40.42% |          52      0.55%     40.97% |          28      0.30%     41.27% |          15      0.16%     41.43% |          44      0.47%     41.89% |          16      0.17%     42.06% |          12      0.13%     42.19% |          16      0.17%     42.36% |          12      0.13%     42.48% |          20      0.21%     42.70% |          28      0.30%     42.99% |          26      0.27%     43.27% |          18      0.19%     43.46% |          14      0.15%     43.60% |          34      0.36%     43.96% |          25      0.26%     44.23% |          14      0.15%     44.38% # delay distribution for loads (Unspecified)
system.cpu1.loadLatencyDist::overflows           5262     55.62%    100.00% # delay distribution for loads (Unspecified)
system.cpu1.loadLatencyDist::min_value         104000                       # delay distribution for loads (Unspecified)
system.cpu1.loadLatencyDist::max_value       20883000                       # delay distribution for loads (Unspecified)
system.cpu1.loadLatencyDist::total               9460                       # delay distribution for loads (Unspecified)
system.cpu1.storeLatencyDist::bucket_size        10000                       # delay distribution for stores (Unspecified)
system.cpu1.storeLatencyDist::min_bucket            0                       # delay distribution for stores (Unspecified)
system.cpu1.storeLatencyDist::max_bucket      1599999                       # delay distribution for stores (Unspecified)
system.cpu1.storeLatencyDist::samples            9456                       # delay distribution for stores (Unspecified)
system.cpu1.storeLatencyDist::mean       1699846.975465                       # delay distribution for stores (Unspecified)
system.cpu1.storeLatencyDist::stdev      1153551.382343                       # delay distribution for stores (Unspecified)
system.cpu1.storeLatencyDist::underflows            0      0.00%      0.00% # delay distribution for stores (Unspecified)
system.cpu1.storeLatencyDist             |           0      0.00%      0.00% |           0      0.00%      0.00% |           0      0.00%      0.00% |           0      0.00%      0.00% |           0      0.00%      0.00% |           0      0.00%      0.00% |           0      0.00%      0.00% |           0      0.00%      0.00% |           0      0.00%      0.00% |           0      0.00%      0.00% |           0      0.00%      0.00% |           0      0.00%      0.00% |           0      0.00%      0.00% |           0      0.00%      0.00% |           0      0.00%      0.00% |           0      0.00%      0.00% |           0      0.00%      0.00% |           0      0.00%      0.00% |           0      0.00%      0.00% |           0      0.00%      0.00% |           0      0.00%      0.00% |           0      0.00%      0.00% |           0      0.00%      0.00% |           0      0.00%      0.00% |           3      0.03%      0.03% |           5      0.05%      0.08% |         281      2.97%      3.06% |          51      0.54%      3.60% |          20      0.21%      3.81% |         276      2.92%      6.73% |          49      0.52%      7.24% |          44      0.47%      7.71% |         169      1.79%      9.50% |         142      1.50%     11.00% |          92      0.97%     11.97% |          43      0.45%     12.43% |         183      1.94%     14.36% |          41      0.43%     14.79% |          33      0.35%     15.14% |         110      1.16%     16.31% |          84      0.89%     17.20% |          42      0.44%     17.64% |          32      0.34%     17.98% |          57      0.60%     18.58% |          25      0.26%     18.85% |          28      0.30%     19.14% |          27      0.29%     19.43% |          32      0.34%     19.77% |          26      0.27%     20.04% |          19      0.20%     20.24% |          16      0.17%     20.41% |          27      0.29%     20.70% |          18      0.19%     20.89% |          11      0.12%     21.00% |           8      0.08%     21.09% |           7      0.07%     21.16% |          22      0.23%     21.39% |          13      0.14%     21.53% |          11      0.12%     21.65% |          13      0.14%     21.79% |          10      0.11%     21.89% |          18      0.19%     22.08% |          17      0.18%     22.26% |          12      0.13%     22.39% |          13      0.14%     22.53% |           9      0.10%     22.62% |           7      0.07%     22.69% |           4      0.04%     22.74% |          13      0.14%     22.87% |          10      0.11%     22.98% |           7      0.07%     23.05% |          11      0.12%     23.17% |           9      0.10%     23.27% |          13      0.14%     23.40% |           9      0.10%     23.50% |           5      0.05%     23.55% |           2      0.02%     23.57% |           7      0.07%     23.65% |          66      0.70%     24.34% |          15      0.16%     24.50% |          13      0.14%     24.64% |          20      0.21%     24.85% |           6      0.06%     24.92% |           9      0.10%     25.01% |          19      0.20%     25.21% |           5      0.05%     25.26% |           9      0.10%     25.36% |           8      0.08%     25.44% |          12      0.13%     25.57% |           6      0.06%     25.63% |           6      0.06%     25.70% |           6      0.06%     25.76% |           1      0.01%     25.77% |          42      0.44%     26.22% |          31      0.33%     26.54% |          13      0.14%     26.68% |          18      0.19%     26.87% |          12      0.13%     27.00% |           6      0.06%     27.06% |          21      0.22%     27.28% |          15      0.16%     27.44% |           5      0.05%     27.50% |           8      0.08%     27.58% |          10      0.11%     27.69% |           5      0.05%     27.74% |           9      0.10%     27.83% |           4      0.04%     27.88% |           6      0.06%     27.94% |          27      0.29%     28.23% |          43      0.45%     28.68% |           9      0.10%     28.78% |          18      0.19%     28.97% |          13      0.14%     29.10% |           7      0.07%     29.18% |          11      0.12%     29.29% |          16      0.17%     29.46% |           8      0.08%     29.55% |           2      0.02%     29.57% |          11      0.12%     29.68% |          12      0.13%     29.81% |           5      0.05%     29.86% |           5      0.05%     29.92% |           7      0.07%     29.99% |          11      0.12%     30.11% |          41      0.43%     30.54% |          28      0.30%     30.84% |          17      0.18%     31.02% |          14      0.15%     31.17% |          15      0.16%     31.32% |           9      0.10%     31.42% |          18      0.19%     31.61% |           9      0.10%     31.70% |          15      0.16%     31.86% |          15      0.16%     32.02% |          15      0.16%     32.18% |           7      0.07%     32.25% |           7      0.07%     32.33% |           8      0.08%     32.41% |          15      0.16%     32.57% |           6      0.06%     32.64% |          37      0.39%     33.03% |          39      0.41%     33.44% |          17      0.18%     33.62% |          20      0.21%     33.83% |          11      0.12%     33.95% |           6      0.06%     34.01% |          10      0.11%     34.12% |          15      0.16%     34.27% |           6      0.06%     34.34% |           5      0.05%     34.39% |          12      0.13%     34.52% |          97      1.03%     35.54% |          46      0.49%     36.03% |          16      0.17%     36.20% |          31      0.33%     36.53% |          36      0.38%     36.91% |          73      0.77%     37.68% |         211      2.23%     39.91% |         143      1.51%     41.42% |          62      0.66%     42.08% # delay distribution for stores (Unspecified)
system.cpu1.storeLatencyDist::overflows          5477     57.92%    100.00% # delay distribution for stores (Unspecified)
system.cpu1.storeLatencyDist::min_value        244000                       # delay distribution for stores (Unspecified)
system.cpu1.storeLatencyDist::max_value      11914000                       # delay distribution for stores (Unspecified)
system.cpu1.storeLatencyDist::total              9456                       # delay distribution for stores (Unspecified)
system.cpu1.initToCoalesceLatency::bucket_size        10000                       # Ticks from vmem inst initiateAcc to coalescer issue (Unspecified)
system.cpu1.initToCoalesceLatency::min_bucket            0                       # Ticks from vmem inst initiateAcc to coalescer issue (Unspecified)
system.cpu1.initToCoalesceLatency::max_bucket      1599999                       # Ticks from vmem inst initiateAcc to coalescer issue (Unspecified)
system.cpu1.initToCoalesceLatency::samples            0                       # Ticks from vmem inst initiateAcc to coalescer issue (Unspecified)
system.cpu1.initToCoalesceLatency::mean           nan                       # Ticks from vmem inst initiateAcc to coalescer issue (Unspecified)
system.cpu1.initToCoalesceLatency::stdev          nan                       # Ticks from vmem inst initiateAcc to coalescer issue (Unspecified)
system.cpu1.initToCoalesceLatency::underflows            0                       # Ticks from vmem inst initiateAcc to coalescer issue (Unspecified)
system.cpu1.initToCoalesceLatency        |           0                       |           0                       |           0                       |           0                       |           0                       |           0                       |           0                       |           0                       |           0                       |           0                       |           0                       |           0                       |           0                       |           0                       |           0                       |           0                       |           0                       |           0                       |           0                       |           0                       |           0                       |           0                       |           0                       |           0                       |           0                       |           0                       |           0                       |           0                       |           0                       |           0                       |           0                       |           0                       |           0                       |           0                       |           0                       |           0                       |           0                       |           0                       |           0                       |           0                       |           0                       |           0                       |           0                       |           0                       |           0                       |           0                       |           0                       |           0                       |           0                       |           0                       |           0                       |           0                       |           0                       |           0                       |           0                       |           0                       |           0                       |           0                       |           0                       |           0                       |           0                       |           0                       |           0                       |           0                       |           0                       |           0                       |           0                       |           0                       |           0                       |           0                       |           0                       |           0                       |           0                       |           0                       |           0                       |           0                       |           0                       |           0                       |           0                       |           0                       |           0                       |           0                       |           0                       |           0                       |           0                       |           0                       |           0                       |           0                       |           0                       |           0                       |           0                       |           0                       |           0                       |           0                       |           0                       |           0                       |           0                       |           0                       |           0                       |           0                       |           0                       |           0                       |           0                       |           0                       |           0                       |           0                       |           0                       |           0                       |           0                       |           0                       |           0                       |           0                       |           0                       |           0                       |           0                       |           0                       |           0                       |           0                       |           0                       |           0                       |           0                       |           0                       |           0                       |           0                       |           0                       |           0                       |           0                       |           0                       |           0                       |           0                       |           0                       |           0                       |           0                       |           0                       |           0                       |           0                       |           0                       |           0                       |           0                       |           0                       |           0                       |           0                       |           0                       |           0                       |           0                       |           0                       |           0                       |           0                       |           0                       |           0                       |           0                       |           0                       |           0                       |           0                       |           0                       |           0                       |           0                       |           0                       |           0                       |           0                       # Ticks from vmem inst initiateAcc to coalescer issue (Unspecified)
system.cpu1.initToCoalesceLatency::overflows            0                       # Ticks from vmem inst initiateAcc to coalescer issue (Unspecified)
system.cpu1.initToCoalesceLatency::min_value            0                       # Ticks from vmem inst initiateAcc to coalescer issue (Unspecified)
system.cpu1.initToCoalesceLatency::max_value            0                       # Ticks from vmem inst initiateAcc to coalescer issue (Unspecified)
system.cpu1.initToCoalesceLatency::total            0                       # Ticks from vmem inst initiateAcc to coalescer issue (Unspecified)
system.cpu1.rubyNetworkLatency::bucket_size        10000                       # Ticks from coalescer issue to coalescer hit callback (Unspecified)
system.cpu1.rubyNetworkLatency::min_bucket            0                       # Ticks from coalescer issue to coalescer hit callback (Unspecified)
system.cpu1.rubyNetworkLatency::max_bucket      1599999                       # Ticks from coalescer issue to coalescer hit callback (Unspecified)
system.cpu1.rubyNetworkLatency::samples             0                       # Ticks from coalescer issue to coalescer hit callback (Unspecified)
system.cpu1.rubyNetworkLatency::mean              nan                       # Ticks from coalescer issue to coalescer hit callback (Unspecified)
system.cpu1.rubyNetworkLatency::stdev             nan                       # Ticks from coalescer issue to coalescer hit callback (Unspecified)
system.cpu1.rubyNetworkLatency::underflows            0                       # Ticks from coalescer issue to coalescer hit callback (Unspecified)
system.cpu1.rubyNetworkLatency           |           0                       |           0                       |           0                       |           0                       |           0                       |           0                       |           0                       |           0                       |           0                       |           0                       |           0                       |           0                       |           0                       |           0                       |           0                       |           0                       |           0                       |           0                       |           0                       |           0                       |           0                       |           0                       |           0                       |           0                       |           0                       |           0                       |           0                       |           0                       |           0                       |           0                       |           0                       |           0                       |           0                       |           0                       |           0                       |           0                       |           0                       |           0                       |           0                       |           0                       |           0                       |           0                       |           0                       |           0                       |           0                       |           0                       |           0                       |           0                       |           0                       |           0                       |           0                       |           0                       |           0                       |           0                       |           0                       |           0                       |           0                       |           0                       |           0                       |           0                       |           0                       |           0                       |           0                       |           0                       |           0                       |           0                       |           0                       |           0                       |           0                       |           0                       |           0                       |           0                       |           0                       |           0                       |           0                       |           0                       |           0                       |           0                       |           0                       |           0                       |           0                       |           0                       |           0                       |           0                       |           0                       |           0                       |           0                       |           0                       |           0                       |           0                       |           0                       |           0                       |           0                       |           0                       |           0                       |           0                       |           0                       |           0                       |           0                       |           0                       |           0                       |           0                       |           0                       |           0                       |           0                       |           0                       |           0                       |           0                       |           0                       |           0                       |           0                       |           0                       |           0                       |           0                       |           0                       |           0                       |           0                       |           0                       |           0                       |           0                       |           0                       |           0                       |           0                       |           0                       |           0                       |           0                       |           0                       |           0                       |           0                       |           0                       |           0                       |           0                       |           0                       |           0                       |           0                       |           0                       |           0                       |           0                       |           0                       |           0                       |           0                       |           0                       |           0                       |           0                       |           0                       |           0                       |           0                       |           0                       |           0                       |           0                       |           0                       |           0                       |           0                       |           0                       |           0                       |           0                       |           0                       |           0                       |           0                       |           0                       # Ticks from coalescer issue to coalescer hit callback (Unspecified)
system.cpu1.rubyNetworkLatency::overflows            0                       # Ticks from coalescer issue to coalescer hit callback (Unspecified)
system.cpu1.rubyNetworkLatency::min_value            0                       # Ticks from coalescer issue to coalescer hit callback (Unspecified)
system.cpu1.rubyNetworkLatency::max_value            0                       # Ticks from coalescer issue to coalescer hit callback (Unspecified)
system.cpu1.rubyNetworkLatency::total               0                       # Ticks from coalescer issue to coalescer hit callback (Unspecified)
system.cpu1.gmEnqueueLatency::bucket_size        10000                       # Ticks from coalescer hit callback to GM pipe enqueue (Unspecified)
system.cpu1.gmEnqueueLatency::min_bucket            0                       # Ticks from coalescer hit callback to GM pipe enqueue (Unspecified)
system.cpu1.gmEnqueueLatency::max_bucket      1599999                       # Ticks from coalescer hit callback to GM pipe enqueue (Unspecified)
system.cpu1.gmEnqueueLatency::samples               0                       # Ticks from coalescer hit callback to GM pipe enqueue (Unspecified)
system.cpu1.gmEnqueueLatency::mean                nan                       # Ticks from coalescer hit callback to GM pipe enqueue (Unspecified)
system.cpu1.gmEnqueueLatency::stdev               nan                       # Ticks from coalescer hit callback to GM pipe enqueue (Unspecified)
system.cpu1.gmEnqueueLatency::underflows            0                       # Ticks from coalescer hit callback to GM pipe enqueue (Unspecified)
system.cpu1.gmEnqueueLatency             |           0                       |           0                       |           0                       |           0                       |           0                       |           0                       |           0                       |           0                       |           0                       |           0                       |           0                       |           0                       |           0                       |           0                       |           0                       |           0                       |           0                       |           0                       |           0                       |           0                       |           0                       |           0                       |           0                       |           0                       |           0                       |           0                       |           0                       |           0                       |           0                       |           0                       |           0                       |           0                       |           0                       |           0                       |           0                       |           0                       |           0                       |           0                       |           0                       |           0                       |           0                       |           0                       |           0                       |           0                       |           0                       |           0                       |           0                       |           0                       |           0                       |           0                       |           0                       |           0                       |           0                       |           0                       |           0                       |           0                       |           0                       |           0                       |           0                       |           0                       |           0                       |           0                       |           0                       |           0                       |           0                       |           0                       |           0                       |           0                       |           0                       |           0                       |           0                       |           0                       |           0                       |           0                       |           0                       |           0                       |           0                       |           0                       |           0                       |           0                       |           0                       |           0                       |           0                       |           0                       |           0                       |           0                       |           0                       |           0                       |           0                       |           0                       |           0                       |           0                       |           0                       |           0                       |           0                       |           0                       |           0                       |           0                       |           0                       |           0                       |           0                       |           0                       |           0                       |           0                       |           0                       |           0                       |           0                       |           0                       |           0                       |           0                       |           0                       |           0                       |           0                       |           0                       |           0                       |           0                       |           0                       |           0                       |           0                       |           0                       |           0                       |           0                       |           0                       |           0                       |           0                       |           0                       |           0                       |           0                       |           0                       |           0                       |           0                       |           0                       |           0                       |           0                       |           0                       |           0                       |           0                       |           0                       |           0                       |           0                       |           0                       |           0                       |           0                       |           0                       |           0                       |           0                       |           0                       |           0                       |           0                       |           0                       |           0                       |           0                       |           0                       |           0                       |           0                       |           0                       |           0                       |           0                       |           0                       |           0                       # Ticks from coalescer hit callback to GM pipe enqueue (Unspecified)
system.cpu1.gmEnqueueLatency::overflows             0                       # Ticks from coalescer hit callback to GM pipe enqueue (Unspecified)
system.cpu1.gmEnqueueLatency::min_value             0                       # Ticks from coalescer hit callback to GM pipe enqueue (Unspecified)
system.cpu1.gmEnqueueLatency::max_value             0                       # Ticks from coalescer hit callback to GM pipe enqueue (Unspecified)
system.cpu1.gmEnqueueLatency::total                 0                       # Ticks from coalescer hit callback to GM pipe enqueue (Unspecified)
system.cpu1.gmToCompleteLatency::bucket_size        10000                       # Ticks queued in GM pipes ordered response buffer (Unspecified)
system.cpu1.gmToCompleteLatency::min_bucket            0                       # Ticks queued in GM pipes ordered response buffer (Unspecified)
system.cpu1.gmToCompleteLatency::max_bucket      1599999                       # Ticks queued in GM pipes ordered response buffer (Unspecified)
system.cpu1.gmToCompleteLatency::samples            0                       # Ticks queued in GM pipes ordered response buffer (Unspecified)
system.cpu1.gmToCompleteLatency::mean             nan                       # Ticks queued in GM pipes ordered response buffer (Unspecified)
system.cpu1.gmToCompleteLatency::stdev            nan                       # Ticks queued in GM pipes ordered response buffer (Unspecified)
system.cpu1.gmToCompleteLatency::underflows            0                       # Ticks queued in GM pipes ordered response buffer (Unspecified)
system.cpu1.gmToCompleteLatency          |           0                       |           0                       |           0                       |           0                       |           0                       |           0                       |           0                       |           0                       |           0                       |           0                       |           0                       |           0                       |           0                       |           0                       |           0                       |           0                       |           0                       |           0                       |           0                       |           0                       |           0                       |           0                       |           0                       |           0                       |           0                       |           0                       |           0                       |           0                       |           0                       |           0                       |           0                       |           0                       |           0                       |           0                       |           0                       |           0                       |           0                       |           0                       |           0                       |           0                       |           0                       |           0                       |           0                       |           0                       |           0                       |           0                       |           0                       |           0                       |           0                       |           0                       |           0                       |           0                       |           0                       |           0                       |           0                       |           0                       |           0                       |           0                       |           0                       |           0                       |           0                       |           0                       |           0                       |           0                       |           0                       |           0                       |           0                       |           0                       |           0                       |           0                       |           0                       |           0                       |           0                       |           0                       |           0                       |           0                       |           0                       |           0                       |           0                       |           0                       |           0                       |           0                       |           0                       |           0                       |           0                       |           0                       |           0                       |           0                       |           0                       |           0                       |           0                       |           0                       |           0                       |           0                       |           0                       |           0                       |           0                       |           0                       |           0                       |           0                       |           0                       |           0                       |           0                       |           0                       |           0                       |           0                       |           0                       |           0                       |           0                       |           0                       |           0                       |           0                       |           0                       |           0                       |           0                       |           0                       |           0                       |           0                       |           0                       |           0                       |           0                       |           0                       |           0                       |           0                       |           0                       |           0                       |           0                       |           0                       |           0                       |           0                       |           0                       |           0                       |           0                       |           0                       |           0                       |           0                       |           0                       |           0                       |           0                       |           0                       |           0                       |           0                       |           0                       |           0                       |           0                       |           0                       |           0                       |           0                       |           0                       |           0                       |           0                       |           0                       |           0                       |           0                       |           0                       |           0                       |           0                       |           0                       |           0                       |           0                       # Ticks queued in GM pipes ordered response buffer (Unspecified)
system.cpu1.gmToCompleteLatency::overflows            0                       # Ticks queued in GM pipes ordered response buffer (Unspecified)
system.cpu1.gmToCompleteLatency::min_value            0                       # Ticks queued in GM pipes ordered response buffer (Unspecified)
system.cpu1.gmToCompleteLatency::max_value            0                       # Ticks queued in GM pipes ordered response buffer (Unspecified)
system.cpu1.gmToCompleteLatency::total              0                       # Ticks queued in GM pipes ordered response buffer (Unspecified)
system.cpu1.coalsrLineAddresses::bucket_size            1                       # Number of cache lines for coalesced request (Unspecified)
system.cpu1.coalsrLineAddresses::min_bucket            0                       # Number of cache lines for coalesced request (Unspecified)
system.cpu1.coalsrLineAddresses::max_bucket           20                       # Number of cache lines for coalesced request (Unspecified)
system.cpu1.coalsrLineAddresses::samples        18916                       # Number of cache lines for coalesced request (Unspecified)
system.cpu1.coalsrLineAddresses::mean               0                       # Number of cache lines for coalesced request (Unspecified)
system.cpu1.coalsrLineAddresses::stdev              0                       # Number of cache lines for coalesced request (Unspecified)
system.cpu1.coalsrLineAddresses::underflows            0      0.00%      0.00% # Number of cache lines for coalesced request (Unspecified)
system.cpu1.coalsrLineAddresses          |       18916    100.00%    100.00% |           0      0.00%    100.00% |           0      0.00%    100.00% |           0      0.00%    100.00% |           0      0.00%    100.00% |           0      0.00%    100.00% |           0      0.00%    100.00% |           0      0.00%    100.00% |           0      0.00%    100.00% |           0      0.00%    100.00% |           0      0.00%    100.00% |           0      0.00%    100.00% |           0      0.00%    100.00% |           0      0.00%    100.00% |           0      0.00%    100.00% |           0      0.00%    100.00% |           0      0.00%    100.00% |           0      0.00%    100.00% |           0      0.00%    100.00% |           0      0.00%    100.00% |           0      0.00%    100.00% # Number of cache lines for coalesced request (Unspecified)
system.cpu1.coalsrLineAddresses::overflows            0      0.00%    100.00% # Number of cache lines for coalesced request (Unspecified)
system.cpu1.coalsrLineAddresses::min_value            0                       # Number of cache lines for coalesced request (Unspecified)
system.cpu1.coalsrLineAddresses::max_value            0                       # Number of cache lines for coalesced request (Unspecified)
system.cpu1.coalsrLineAddresses::total          18916                       # Number of cache lines for coalesced request (Unspecified)
system.cpu1.shaderActiveTicks              1478811996                       # Total ticks that any CU attached to this shader is active (Unspecified)
system.cpu1.vectorInstSrcOperand::0             64370                       # vector instruction source operand distribution (Unspecified)
system.cpu1.vectorInstSrcOperand::1             88003                       # vector instruction source operand distribution (Unspecified)
system.cpu1.vectorInstSrcOperand::2              9540                       # vector instruction source operand distribution (Unspecified)
system.cpu1.vectorInstSrcOperand::3                 4                       # vector instruction source operand distribution (Unspecified)
system.cpu1.vectorInstDstOperand::0             77925                       # vector instruction destination operand distribution (Unspecified)
system.cpu1.vectorInstDstOperand::1             83992                       # vector instruction destination operand distribution (Unspecified)
system.cpu1.vectorInstDstOperand::2                 0                       # vector instruction destination operand distribution (Unspecified)
system.cpu1.vectorInstDstOperand::3                 0                       # vector instruction destination operand distribution (Unspecified)
system.cpu1.CUs0.vALUInsts                      22227                       # Number of vector ALU insts issued. (Unspecified)
system.cpu1.CUs0.vALUInstsPerWF             68.814241                       # The avg. number of vector ALU insts issued per-wavefront. (Unspecified)
system.cpu1.CUs0.sALUInsts                       2578                       # Number of scalar ALU insts issued. (Unspecified)
system.cpu1.CUs0.sALUInstsPerWF              7.981424                       # The avg. number of scalar ALU insts issued per-wavefront. (Unspecified)
system.cpu1.CUs0.instCyclesVALU                 22227                       # Number of cycles needed to execute VALU insts. (Unspecified)
system.cpu1.CUs0.instCyclesSALU                  2578                       # Number of cycles needed to execute SALU insts. (Unspecified)
system.cpu1.CUs0.threadCyclesVALU             1422378                       # Number of thread cycles used to execute vector ALU ops. Similar to instCyclesVALU but multiplied by the number of active threads. (Unspecified)
system.cpu1.CUs0.vALUUtilization            99.989455                       # Percentage of active vector ALU threads in a wave. (Unspecified)
system.cpu1.CUs0.ldsNoFlatInsts                    16                       # Number of LDS insts issued, not including FLAT accesses that resolve to LDS. (Unspecified)
system.cpu1.CUs0.ldsNoFlatInstsPerWF         0.049536                       # The avg. number of LDS insts (not including FLAT accesses that resolve to LDS) per-wavefront. (Unspecified)
system.cpu1.CUs0.flatVMemInsts                   4726                       # The number of FLAT insts that resolve to vmem issued. (Unspecified)
system.cpu1.CUs0.flatVMemInstsPerWF         14.631579                       # The average number of FLAT insts that resolve to vmem issued per-wavefront. (Unspecified)
system.cpu1.CUs0.flatLDSInsts                       0                       # The number of FLAT insts that resolve to LDS issued. (Unspecified)
system.cpu1.CUs0.flatLDSInstsPerWF                  0                       # The average number of FLAT insts that resolve to LDS issued per-wavefront. (Unspecified)
system.cpu1.CUs0.vectorMemWrites                   16                       # Number of vector mem write insts (excluding FLAT insts). (Unspecified)
system.cpu1.CUs0.vectorMemWritesPerWF        0.049536                       # The average number of vector mem write insts (excluding FLAT insts) per-wavefront. (Unspecified)
system.cpu1.CUs0.vectorMemReads                    20                       # Number of vector mem read insts (excluding FLAT insts). (Unspecified)
system.cpu1.CUs0.vectorMemReadsPerWF         0.061920                       # The avg. number of vector mem read insts (excluding FLAT insts) per-wavefront. (Unspecified)
system.cpu1.CUs0.scalarMemWrites                    0                       # Number of scalar mem write insts. (Unspecified)
system.cpu1.CUs0.scalarMemWritesPerWF               0                       # The average number of scalar mem write insts per-wavefront. (Unspecified)
system.cpu1.CUs0.scalarMemReads                  1926                       # Number of scalar mem read insts. (Unspecified)
system.cpu1.CUs0.scalarMemReadsPerWF         5.962848                       # The average number of scalar mem read insts per-wavefront. (Unspecified)
system.cpu1.CUs0.vectorMemReadsPerKiloInst     0.492829                       # Number of vector mem reads per kilo-instruction (Unspecified)
system.cpu1.CUs0.vectorMemWritesPerKiloInst     0.394263                       # Number of vector mem writes per kilo-instruction (Unspecified)
system.cpu1.CUs0.vectorMemInstsPerKiloInst     0.887093                       # Number of vector mem insts per kilo-instruction (Unspecified)
system.cpu1.CUs0.scalarMemReadsPerKiloInst    47.459465                       # Number of scalar mem reads per kilo-instruction (Unspecified)
system.cpu1.CUs0.scalarMemWritesPerKiloInst            0                       # Number of scalar mem writes per kilo-instruction (Unspecified)
system.cpu1.CUs0.scalarMemInstsPerKiloInst    47.459465                       # Number of scalar mem insts per kilo-instruction (Unspecified)
system.cpu1.CUs0.instCyclesVMemPerSimd::0         1789                       # Number of cycles to send address, command, data from VRF to vector memory unit, per SIMD (Unspecified)
system.cpu1.CUs0.instCyclesVMemPerSimd::1         1786                       # Number of cycles to send address, command, data from VRF to vector memory unit, per SIMD (Unspecified)
system.cpu1.CUs0.instCyclesVMemPerSimd::2         1786                       # Number of cycles to send address, command, data from VRF to vector memory unit, per SIMD (Unspecified)
system.cpu1.CUs0.instCyclesVMemPerSimd::3         1780                       # Number of cycles to send address, command, data from VRF to vector memory unit, per SIMD (Unspecified)
system.cpu1.CUs0.instCyclesScMemPerSimd::0          465                       # Number of cycles to send address, command, data from SRF to scalar memory unit, per SIMD (Unspecified)
system.cpu1.CUs0.instCyclesScMemPerSimd::1          465                       # Number of cycles to send address, command, data from SRF to scalar memory unit, per SIMD (Unspecified)
system.cpu1.CUs0.instCyclesScMemPerSimd::2          465                       # Number of cycles to send address, command, data from SRF to scalar memory unit, per SIMD (Unspecified)
system.cpu1.CUs0.instCyclesScMemPerSimd::3          531                       # Number of cycles to send address, command, data from SRF to scalar memory unit, per SIMD (Unspecified)
system.cpu1.CUs0.instCyclesLdsPerSimd::0            6                       # Number of cycles to send address, command, data from VRF to LDS unit, per SIMD (Unspecified)
system.cpu1.CUs0.instCyclesLdsPerSimd::1            6                       # Number of cycles to send address, command, data from VRF to LDS unit, per SIMD (Unspecified)
system.cpu1.CUs0.instCyclesLdsPerSimd::2            6                       # Number of cycles to send address, command, data from VRF to LDS unit, per SIMD (Unspecified)
system.cpu1.CUs0.instCyclesLdsPerSimd::3            6                       # Number of cycles to send address, command, data from VRF to LDS unit, per SIMD (Unspecified)
system.cpu1.CUs0.globalReads                     2383                       # Number of reads to the global segment (Unspecified)
system.cpu1.CUs0.globalWrites                    2379                       # Number of writes to the global segment (Unspecified)
system.cpu1.CUs0.globalMemInsts                  4762                       # Number of memory instructions sent to the global segment (Unspecified)
[...]
system.Shader.cacheBlockRoundTrip8::overflows            0                       # Coalsr-to-coalsr time for the Nth cache block in an inst (Unspecified)
system.Shader.cacheBlockRoundTrip8::min_value            0                       # Coalsr-to-coalsr time for the Nth cache block in an inst (Unspecified)
system.Shader.cacheBlockRoundTrip8::max_value            0                       # Coalsr-to-coalsr time for the Nth cache block in an inst (Unspecified)
system.Shader.cacheBlockRoundTrip8::total            0                       # Coalsr-to-coalsr time for the Nth cache block in an inst (Unspecified)
system.Shader.cacheBlockRoundTrip9::bucket_size        10000                       # Coalsr-to-coalsr time for the Nth cache block in an inst (Unspecified)
system.Shader.cacheBlockRoundTrip9::min_bucket            0                       # Coalsr-to-coalsr time for the Nth cache block in an inst (Unspecified)
system.Shader.cacheBlockRoundTrip9::max_bucket      1599999                       # Coalsr-to-coalsr time for the Nth cache block in an inst (Unspecified)
system.Shader.cacheBlockRoundTrip9::samples            0                       # Coalsr-to-coalsr time for the Nth cache block in an inst (Unspecified)
system.Shader.cacheBlockRoundTrip9::mean          nan                       # Coalsr-to-coalsr time for the Nth cache block in an inst (Unspecified)
system.Shader.cacheBlockRoundTrip9::stdev          nan                       # Coalsr-to-coalsr time for the Nth cache block in an inst (Unspecified)
system.Shader.cacheBlockRoundTrip9::underflows            0                       # Coalsr-to-coalsr time for the Nth cache block in an inst (Unspecified)
system.Shader.cacheBlockRoundTrip9       |           0                       |           0                       |           0                       |           0                       |           0                       |           0                       |           0                       |           0                       |           0                       |           0                       |           0                       |           0                       |           0                       |           0                       |           0                       |           0                       |           0                       |           0                       |           0                       |           0                       |           0                       |           0                       |           0                       |           0                       |           0                       |           0                       |           0                       |           0                       |           0                       |           0                       |           0                       |           0                       |           0                       |           0                       |           0                       |           0                       |           0                       |           0                       |           0                       |           0                       |           0                       |           0                       |           0                       |           0                       |           0                       |           0                       |           0                       |           0                       |           0                       |           0                       |           0                       |           0                       |           0                       |           0                       |           0                       |           0                       |           0                       |           0                       |           0                       |           0                       |           0                       |           0                       |           0                       |           0                       |           0                       |           0                       |           0                       |           0                       |           0                       |           0                       |           0                       |           0                       |           0                       |           0                       |           0                       |           0                       |           0                       |           0                       |           0                       |           0                       |           0                       |           0                       |           0                       |           0                       |           0                       |           0                       |           0                       |           0                       |           0                       |           0                       |           0                       |           0                       |           0                       |           0                       |           0                       |           0                       |           0                       |           0                       |           0                       |           0                       |           0                       |           0                       |           0                       |           0                       |           0                       |           0                       |           0                       |           0                       |           0                       |           0                       |           0                       |           0                       |           0                       |           0                       |           0                       |           0                       |           0                       |           0                       |           0                       |           0                       |           0                       |           0                       |           0                       |           0                       |           0                       |           0                       |           0                       |           0                       |           0                       |           0                       |           0                       |           0                       |           0                       |           0                       |           0                       |           0                       |           0                       |           0                       |           0                       |           0                       |           0                       |           0                       |           0                       |           0                       |           0                       |           0                       |           0                       |           0                       |           0                       |           0                       |           0                       |           0                       |           0                       |           0                       |           0                       |           0                       |           0                       |           0                       |           0                       |           0                       # Coalsr-to-coalsr time for the Nth cache block in an inst (Unspecified)
system.Shader.cacheBlockRoundTrip9::overflows            0                       # Coalsr-to-coalsr time for the Nth cache block in an inst (Unspecified)
system.Shader.cacheBlockRoundTrip9::min_value            0                       # Coalsr-to-coalsr time for the Nth cache block in an inst (Unspecified)
system.Shader.cacheBlockRoundTrip9::max_value            0                       # Coalsr-to-coalsr time for the Nth cache block in an inst (Unspecified)
system.Shader.cacheBlockRoundTrip9::total            0                       # Coalsr-to-coalsr time for the Nth cache block in an inst (Unspecified)
system.l1_coalescer0.coalesced_accesses          4735                       # Number of coalesced TLB accesses (Unspecified)
system.l1_coalescer0.latency               553.845071                       # Avg. latency over all incoming pkts (Unspecified)
system.l1_coalescer0.local_cycles           167470565                       # Number of cycles spent in queue for all incoming reqs (Unspecified)
system.l1_coalescer0.local_latency         279.301292                       # Avg. latency over all incoming pkts (Unspecified)
system.l1_coalescer0.local_queuing_cycles     84454566                       # Number of cycles spent in queue for all incoming reqs (Unspecified)
system.l1_coalescer0.queuing_cycles          84454566                       # Number of cycles spent in queue (Unspecified)
system.l1_coalescer0.uncoalesced_accesses       302378                       # Number of uncoalesced TLB accesses (Unspecified)
system.l1_coalescer1.coalesced_accesses          4712                       # Number of coalesced TLB accesses (Unspecified)
system.l1_coalescer1.latency               439.975594                       # Avg. latency over all incoming pkts (Unspecified)
system.l1_coalescer1.local_cycles           132682560                       # Number of cycles spent in queue for all incoming reqs (Unspecified)
system.l1_coalescer1.local_latency         159.624576                       # Avg. latency over all incoming pkts (Unspecified)
system.l1_coalescer1.local_queuing_cycles     48137664                       # Number of cycles spent in queue for all incoming reqs (Unspecified)
system.l1_coalescer1.queuing_cycles          48137664                       # Number of cycles spent in queue (Unspecified)
system.l1_coalescer1.uncoalesced_accesses       301568                       # Number of uncoalesced TLB accesses (Unspecified)
system.l1_coalescer2.coalesced_accesses          4724                       # Number of coalesced TLB accesses (Unspecified)
system.l1_coalescer2.latency               567.528780                       # Avg. latency over all incoming pkts (Unspecified)
system.l1_coalescer2.local_cycles           171561680                       # Number of cycles spent in queue for all incoming reqs (Unspecified)
system.l1_coalescer2.local_latency         284.798661                       # Avg. latency over all incoming pkts (Unspecified)
system.l1_coalescer2.local_queuing_cycles     86093496                       # Number of cycles spent in queue for all incoming reqs (Unspecified)
system.l1_coalescer2.queuing_cycles          86093496                       # Number of cycles spent in queue (Unspecified)
system.l1_coalescer2.uncoalesced_accesses       302296                       # Number of uncoalesced TLB accesses (Unspecified)
system.l1_coalescer3.coalesced_accesses          4718                       # Number of coalesced TLB accesses (Unspecified)
system.l1_coalescer3.latency               498.979360                       # Avg. latency over all incoming pkts (Unspecified)
system.l1_coalescer3.local_cycles           150661828                       # Number of cycles spent in queue for all incoming reqs (Unspecified)
system.l1_coalescer3.local_latency         191.775585                       # Avg. latency over all incoming pkts (Unspecified)
system.l1_coalescer3.local_queuing_cycles     57904720                       # Number of cycles spent in queue for all incoming reqs (Unspecified)
system.l1_coalescer3.queuing_cycles          57904720                       # Number of cycles spent in queue (Unspecified)
system.l1_coalescer3.uncoalesced_accesses       301940                       # Number of uncoalesced TLB accesses (Unspecified)
system.l2_coalescer.coalesced_accesses           2731                       # Number of coalesced TLB accesses (Unspecified)
system.l2_coalescer.latency               1953.461037                       # Avg. latency over all incoming pkts (Unspecified)
system.l2_coalescer.local_cycles              5389599                       # Number of cycles spent in queue for all incoming reqs (Unspecified)
system.l2_coalescer.local_latency          718.510330                       # Avg. latency over all incoming pkts (Unspecified)
system.l2_coalescer.local_queuing_cycles      1982370                       # Number of cycles spent in queue for all incoming reqs (Unspecified)
system.l2_coalescer.queuing_cycles          126871289                       # Number of cycles spent in queue (Unspecified)
system.l2_coalescer.uncoalesced_accesses         2759                       # Number of uncoalesced TLB accesses (Unspecified)
system.l3_coalescer.coalesced_accesses           1150                       # Number of coalesced TLB accesses (Unspecified)
system.l3_coalescer.latency               2778.059130                       # Avg. latency over all incoming pkts (Unspecified)
system.l3_coalescer.local_cycles              3194768                       # Number of cycles spent in queue for all incoming reqs (Unspecified)
system.l3_coalescer.local_latency                   1                       # Avg. latency over all incoming pkts (Unspecified)
system.l3_coalescer.local_queuing_cycles         1150                       # Number of cycles spent in queue for all incoming reqs (Unspecified)
system.l3_coalescer.queuing_cycles              74169                       # Number of cycles spent in queue (Unspecified)
system.l3_coalescer.uncoalesced_accesses         1150                       # Number of uncoalesced TLB accesses (Unspecified)
system.scalar_coalescer.coalesced_accesses         7542                       # Number of coalesced TLB accesses (Unspecified)
system.scalar_coalescer.latency             20.407595                       # Avg. latency over all incoming pkts (Unspecified)
system.scalar_coalescer.local_cycles           164975                       # Number of cycles spent in queue for all incoming reqs (Unspecified)
system.scalar_coalescer.local_latency       18.627660                       # Avg. latency over all incoming pkts (Unspecified)
system.scalar_coalescer.local_queuing_cycles       150586                       # Number of cycles spent in queue for all incoming reqs (Unspecified)
system.scalar_coalescer.queuing_cycles         150586                       # Number of cycles spent in queue (Unspecified)
system.scalar_coalescer.uncoalesced_accesses         8084                       # Number of uncoalesced TLB accesses (Unspecified)
system.sqc_coalescer.coalesced_accesses         29357                       # Number of coalesced TLB accesses (Unspecified)
system.sqc_coalescer.latency                 3.129354                       # Avg. latency over all incoming pkts (Unspecified)
system.sqc_coalescer.local_cycles               97301                       # Number of cycles spent in queue for all incoming reqs (Unspecified)
system.sqc_coalescer.local_latency           1.282732                       # Avg. latency over all incoming pkts (Unspecified)
system.sqc_coalescer.local_queuing_cycles        39884                       # Number of cycles spent in queue for all incoming reqs (Unspecified)
system.sqc_coalescer.queuing_cycles             39884                       # Number of cycles spent in queue (Unspecified)
system.sqc_coalescer.uncoalesced_accesses        31093                       # Number of uncoalesced TLB accesses (Unspecified)

---------- End Simulation Statistics   ----------
