
---------- Begin Simulation Statistics ----------
simSeconds                                  12.323102                       # Number of seconds simulated (Second)
simTicks                                 12323102485000                       # Number of ticks simulated (Tick)
finalTick                                12323102485000                       # Number of ticks from beginning of simulation (restored from checkpoints and never reset) (Tick)
simFreq                                  1000000000000                       # The number of ticks per simulated second ((Tick/Second))
hostSeconds                                     26.65                       # Real time elapsed on the host (Second)
hostTickRate                             462476687680                       # The number of ticks simulated per host second (ticks/s) ((Tick/Second))
hostMemory                                   29126820                       # Number of bytes of host memory used (Byte)
system.clk_domain.clock                          1000                       # Clock period in ticks (Tick)
system.cpu0.numCycles                     45049762867                       # Number of cpu cycles simulated (Cycle)
system.cpu0.cpi                                   inf                       # CPI: cycles per instruction (core level) ((Cycle/Count))
system.cpu0.ipc                              0.000000                       # IPC: instructions per cycle (core level) ((Count/Cycle))
system.cpu0.numWorkItemsStarted                     0                       # Number of work items this cpu started (Count)
system.cpu0.numWorkItemsCompleted                   0                       # Number of work items this cpu completed (Count)
system.cpu0.numVMExits                        1025094                       # total number of KVM exits (Count)
system.cpu0.numVMHalfEntries                       12                       # number of KVM entries to finalize pending operations (Count)
system.cpu0.numExitSignal                      661868                       # exits due to signal delivery (Count)
system.cpu0.numMMIO                             44166                       # number of VM exits due to memory mapped IO (Count)
system.cpu0.numCoalescedMMIO                        0                       # number of coalesced memory mapped IO requests (Count)
system.cpu0.numIO                              311318                       # number of VM exits due to legacy IO (Count)
system.cpu0.numHalt                                35                       # number of VM exits due to wait for interrupt instructions (Count)
system.cpu0.numInterrupts                        9067                       # number of interrupts delivered (Count)
system.cpu0.numHypercalls                           0                       # number of hypercalls (Count)
system.cpu0.commitStats0.numOps                     0                       # Number of ops (including micro ops) committed (thread level) (Count)
system.cpu0.commitStats0.numInstsNotNOP             0                       # Number of instructions committed excluding NOPs or prefetches (Count)
system.cpu0.commitStats0.numOpsNotNOP               0                       # Number of Ops (including micro ops) Simulated (Count)
system.cpu0.commitStats0.cpi                      inf                       # CPI: cycles per instruction (thread level) ((Cycle/Count))
system.cpu0.commitStats0.ipc                 0.000000                       # IPC: instructions per cycle (thread level) ((Count/Cycle))
system.cpu0.commitStats0.numMemRefs                 0                       # Number of memory references committed (Count)
system.cpu0.commitStats0.numFpInsts                 0                       # Number of float instructions (Count)
system.cpu0.commitStats0.numIntInsts                0                       # Number of integer instructions (Count)
system.cpu0.commitStats0.numLoadInsts               0                       # Number of load instructions (Count)
system.cpu0.commitStats0.numStoreInsts              0                       # Number of store instructions (Count)
system.cpu0.commitStats0.numVecInsts                0                       # Number of vector instructions (Count)
system.cpu0.commitStats0.committedInstType::No_OpClass            0                       # Class of committed instruction. (Count)
system.cpu0.commitStats0.committedInstType::IntAlu            0                       # Class of committed instruction. (Count)
system.cpu0.commitStats0.committedInstType::IntMult            0                       # Class of committed instruction. (Count)
system.cpu0.commitStats0.committedInstType::IntDiv            0                       # Class of committed instruction. (Count)
system.cpu0.commitStats0.committedInstType::FloatAdd            0                       # Class of committed instruction. (Count)
system.cpu0.commitStats0.committedInstType::FloatCmp            0                       # Class of committed instruction. (Count)
system.cpu0.commitStats0.committedInstType::FloatCvt            0                       # Class of committed instruction. (Count)
system.cpu0.commitStats0.committedInstType::FloatMult            0                       # Class of committed instruction. (Count)
system.cpu0.commitStats0.committedInstType::FloatMultAcc            0                       # Class of committed instruction. (Count)
system.cpu0.commitStats0.committedInstType::FloatDiv            0                       # Class of committed instruction. (Count)
system.cpu0.commitStats0.committedInstType::FloatMisc            0                       # Class of committed instruction. (Count)
system.cpu0.commitStats0.committedInstType::FloatSqrt            0                       # Class of committed instruction. (Count)
system.cpu0.commitStats0.committedInstType::SimdAdd            0                       # Class of committed instruction. (Count)
system.cpu0.commitStats0.committedInstType::SimdAddAcc            0                       # Class of committed instruction. (Count)
system.cpu0.commitStats0.committedInstType::SimdAlu            0                       # Class of committed instruction. (Count)
system.cpu0.commitStats0.committedInstType::SimdCmp            0                       # Class of committed instruction. (Count)
system.cpu0.commitStats0.committedInstType::SimdCvt            0                       # Class of committed instruction. (Count)
system.cpu0.commitStats0.committedInstType::SimdMisc            0                       # Class of committed instruction. (Count)
system.cpu0.commitStats0.committedInstType::SimdMult            0                       # Class of committed instruction. (Count)
system.cpu0.commitStats0.committedInstType::SimdMultAcc            0                       # Class of committed instruction. (Count)
system.cpu0.commitStats0.committedInstType::SimdMatMultAcc            0                       # Class of committed instruction. (Count)
system.cpu0.commitStats0.committedInstType::SimdShift            0                       # Class of committed instruction. (Count)
system.cpu0.commitStats0.committedInstType::SimdShiftAcc            0                       # Class of committed instruction. (Count)
system.cpu0.commitStats0.committedInstType::SimdDiv            0                       # Class of committed instruction. (Count)
system.cpu0.commitStats0.committedInstType::SimdSqrt            0                       # Class of committed instruction. (Count)
system.cpu0.commitStats0.committedInstType::SimdFloatAdd            0                       # Class of committed instruction. (Count)
system.cpu0.commitStats0.committedInstType::SimdFloatAlu            0                       # Class of committed instruction. (Count)
system.cpu0.commitStats0.committedInstType::SimdFloatCmp            0                       # Class of committed instruction. (Count)
system.cpu0.commitStats0.committedInstType::SimdFloatCvt            0                       # Class of committed instruction. (Count)
system.cpu0.commitStats0.committedInstType::SimdFloatDiv            0                       # Class of committed instruction. (Count)
system.cpu0.commitStats0.committedInstType::SimdFloatMisc            0                       # Class of committed instruction. (Count)
system.cpu0.commitStats0.committedInstType::SimdFloatMult            0                       # Class of committed instruction. (Count)
system.cpu0.commitStats0.committedInstType::SimdFloatMultAcc            0                       # Class of committed instruction. (Count)
system.cpu0.commitStats0.committedInstType::SimdFloatMatMultAcc            0                       # Class of committed instruction. (Count)
system.cpu0.commitStats0.committedInstType::SimdFloatSqrt            0                       # Class of committed instruction. (Count)
system.cpu0.commitStats0.committedInstType::SimdReduceAdd            0                       # Class of committed instruction. (Count)
system.cpu0.commitStats0.committedInstType::SimdReduceAlu            0                       # Class of committed instruction. (Count)
system.cpu0.commitStats0.committedInstType::SimdReduceCmp            0                       # Class of committed instruction. (Count)
system.cpu0.commitStats0.committedInstType::SimdFloatReduceAdd            0                       # Class of committed instruction. (Count)
system.cpu0.commitStats0.committedInstType::SimdFloatReduceCmp            0                       # Class of committed instruction. (Count)
system.cpu0.commitStats0.committedInstType::SimdAes            0                       # Class of committed instruction. (Count)
system.cpu0.commitStats0.committedInstType::SimdAesMix            0                       # Class of committed instruction. (Count)
system.cpu0.commitStats0.committedInstType::SimdSha1Hash            0                       # Class of committed instruction. (Count)
system.cpu0.commitStats0.committedInstType::SimdSha1Hash2            0                       # Class of committed instruction. (Count)
system.cpu0.commitStats0.committedInstType::SimdSha256Hash            0                       # Class of committed instruction. (Count)
system.cpu0.commitStats0.committedInstType::SimdSha256Hash2            0                       # Class of committed instruction. (Count)
system.cpu0.commitStats0.committedInstType::SimdShaSigma2            0                       # Class of committed instruction. (Count)
system.cpu0.commitStats0.committedInstType::SimdShaSigma3            0                       # Class of committed instruction. (Count)
system.cpu0.commitStats0.committedInstType::SimdPredAlu            0                       # Class of committed instruction. (Count)
system.cpu0.commitStats0.committedInstType::Matrix            0                       # Class of committed instruction. (Count)
system.cpu0.commitStats0.committedInstType::MatrixMov            0                       # Class of committed instruction. (Count)
system.cpu0.commitStats0.committedInstType::MatrixOP            0                       # Class of committed instruction. (Count)
system.cpu0.commitStats0.committedInstType::MemRead            0                       # Class of committed instruction. (Count)
system.cpu0.commitStats0.committedInstType::MemWrite            0                       # Class of committed instruction. (Count)
system.cpu0.commitStats0.committedInstType::FloatMemRead            0                       # Class of committed instruction. (Count)
system.cpu0.commitStats0.committedInstType::FloatMemWrite            0                       # Class of committed instruction. (Count)
system.cpu0.commitStats0.committedInstType::IprAccess            0                       # Class of committed instruction. (Count)
system.cpu0.commitStats0.committedInstType::InstPrefetch            0                       # Class of committed instruction. (Count)
system.cpu0.commitStats0.committedInstType::SimdUnitStrideLoad            0                       # Class of committed instruction. (Count)
system.cpu0.commitStats0.committedInstType::SimdUnitStrideStore            0                       # Class of committed instruction. (Count)
system.cpu0.commitStats0.committedInstType::SimdUnitStrideMaskLoad            0                       # Class of committed instruction. (Count)
system.cpu0.commitStats0.committedInstType::SimdUnitStrideMaskStore            0                       # Class of committed instruction. (Count)
system.cpu0.commitStats0.committedInstType::SimdStridedLoad            0                       # Class of committed instruction. (Count)
system.cpu0.commitStats0.committedInstType::SimdStridedStore            0                       # Class of committed instruction. (Count)
system.cpu0.commitStats0.committedInstType::SimdIndexedLoad            0                       # Class of committed instruction. (Count)
system.cpu0.commitStats0.committedInstType::SimdIndexedStore            0                       # Class of committed instruction. (Count)
system.cpu0.commitStats0.committedInstType::SimdWholeRegisterLoad            0                       # Class of committed instruction. (Count)
system.cpu0.commitStats0.committedInstType::SimdWholeRegisterStore            0                       # Class of committed instruction. (Count)
system.cpu0.commitStats0.committedInstType::SimdUnitStrideFaultOnlyFirstLoad            0                       # Class of committed instruction. (Count)
system.cpu0.commitStats0.committedInstType::SimdUnitStrideSegmentedLoad            0                       # Class of committed instruction. (Count)
system.cpu0.commitStats0.committedInstType::SimdUnitStrideSegmentedStore            0                       # Class of committed instruction. (Count)
system.cpu0.commitStats0.committedInstType::SimdExt            0                       # Class of committed instruction. (Count)
system.cpu0.commitStats0.committedInstType::SimdFloatExt            0                       # Class of committed instruction. (Count)
system.cpu0.commitStats0.committedInstType::SimdConfig            0                       # Class of committed instruction. (Count)
system.cpu0.commitStats0.committedInstType::total            0                       # Class of committed instruction. (Count)
system.cpu0.executeStats0.numInsts                  0                       # Number of executed instructions (Count)
system.cpu0.executeStats0.numNop                    0                       # Number of nop insts executed (Count)
system.cpu0.executeStats0.numBranches               0                       # Number of branches executed (Count)
system.cpu0.executeStats0.numLoadInsts              0                       # Number of load instructions executed (Count)
system.cpu0.executeStats0.numStoreInsts             0                       # Number of stores executed (Count)
system.cpu0.executeStats0.instRate                  0                       # Inst execution rate ((Count/Cycle))
system.cpu0.executeStats0.numFpRegWrites            0                       # Number of times the floating registers were written (Count)
system.cpu0.executeStats0.numMemRefs                0                       # Number of memory refs (Count)
system.cpu0.executeStats0.numVecAluAccesses            0                       # Number of vector alu accesses (Count)
system.cpu0.executeStats0.numDiscardedOps            0                       # Number of ops (including micro ops) which were discarded before commit (Count)
system.cpu0.fetchStats0.numInsts                    0                       # Number of instructions fetched (thread level) (Count)
system.cpu0.fetchStats0.numOps                      0                       # Number of ops (including micro ops) fetched (thread level) (Count)
system.cpu0.fetchStats0.fetchRate                   0                       # Number of inst fetches per cycle ((Count/Cycle))
system.cpu0.fetchStats0.branchRate                  0                       # Number of branch fetches per cycle (Ratio)
system.cpu0.fetchStats0.numFetchSuspends            0                       # Number of times Execute suspended instruction fetching (Count)
system.cpu0.interrupts.clk_domain.clock          8000                       # Clock period in ticks (Tick)
system.cpu0.mmu.dtb.rdAccesses                      0                       # TLB accesses on read requests (Count)
system.cpu0.mmu.dtb.wrAccesses                      0                       # TLB accesses on write requests (Count)
system.cpu0.mmu.dtb.rdMisses                        0                       # TLB misses on read requests (Count)
system.cpu0.mmu.dtb.wrMisses                        0                       # TLB misses on write requests (Count)
system.cpu0.mmu.dtb.walker.power_state.pwrStateResidencyTicks::UNDEFINED 12323102485000                       # Cumulative time (in ticks) in various power states (Tick)
system.cpu0.mmu.itb.rdAccesses                      0                       # TLB accesses on read requests (Count)
system.cpu0.mmu.itb.wrAccesses                      0                       # TLB accesses on write requests (Count)
system.cpu0.mmu.itb.rdMisses                        0                       # TLB misses on read requests (Count)
system.cpu0.mmu.itb.wrMisses                        0                       # TLB misses on write requests (Count)
system.cpu0.mmu.itb.walker.power_state.pwrStateResidencyTicks::UNDEFINED 12323102485000                       # Cumulative time (in ticks) in various power states (Tick)
system.cpu0.power_state.pwrStateResidencyTicks::ON 12323102485000                       # Cumulative time (in ticks) in various power states (Tick)
system.cpu0.thread_0.numInsts                       0                       # Number of Instructions committed (Count)
system.cpu0.thread_0.numOps                         0                       # Number of Ops committed (Count)
system.cpu0.thread_0.numMemRefs                     0                       # Number of Memory References (Count)
system.cpu1.allLatencyDist::bucket_size         10000                       # delay distribution for all (Unspecified)
system.cpu1.allLatencyDist::min_bucket              0                       # delay distribution for all (Unspecified)
system.cpu1.allLatencyDist::max_bucket        1599999                       # delay distribution for all (Unspecified)
system.cpu1.allLatencyDist::samples               482                       # delay distribution for all (Unspecified)
system.cpu1.allLatencyDist::mean         1402261.410788                       # delay distribution for all (Unspecified)
system.cpu1.allLatencyDist::stdev        634334.327962                       # delay distribution for all (Unspecified)
system.cpu1.allLatencyDist::underflows              0      0.00%      0.00% # delay distribution for all (Unspecified)
system.cpu1.allLatencyDist               |           0      0.00%      0.00% |           0      0.00%      0.00% |           0      0.00%      0.00% |           0      0.00%      0.00% |           0      0.00%      0.00% |           0      0.00%      0.00% |           0      0.00%      0.00% |           0      0.00%      0.00% |           0      0.00%      0.00% |           0      0.00%      0.00% |           0      0.00%      0.00% |           3      0.62%      0.62% |           0      0.00%      0.62% |           0      0.00%      0.62% |           0      0.00%      0.62% |           0      0.00%      0.62% |           0      0.00%      0.62% |           0      0.00%      0.62% |           0      0.00%      0.62% |           0      0.00%      0.62% |           0      0.00%      0.62% |           0      0.00%      0.62% |           0      0.00%      0.62% |           0      0.00%      0.62% |           0      0.00%      0.62% |           1      0.21%      0.83% |          50     10.37%     11.20% |           7      1.45%     12.66% |           0      0.00%     12.66% |           1      0.21%     12.86% |           0      0.00%     12.86% |           0      0.00%     12.86% |           3      0.62%     13.49% |           4      0.83%     14.32% |           3      0.62%     14.94% |           0      0.00%     14.94% |           0      0.00%     14.94% |           0      0.00%     14.94% |           2      0.41%     15.35% |           1      0.21%     15.56% |           0      0.00%     15.56% |           0      0.00%     15.56% |           1      0.21%     15.77% |           1      0.21%     15.98% |           0      0.00%     15.98% |           0      0.00%     15.98% |           1      0.21%     16.18% |           1      0.21%     16.39% |           2      0.41%     16.80% |           1      0.21%     17.01% |           0      0.00%     17.01% |           1      0.21%     17.22% |           2      0.41%     17.63% |           0      0.00%     17.63% |           0      0.00%     17.63% |           1      0.21%     17.84% |           0      0.00%     17.84% |           0      0.00%     17.84% |           0      0.00%     17.84% |           0      0.00%     17.84% |           0      0.00%     17.84% |           0      0.00%     17.84% |           0      0.00%     17.84% |           0      0.00%     17.84% |           0      0.00%     17.84% |           0      0.00%     17.84% |           0      0.00%     17.84% |           0      0.00%     17.84% |           0      0.00%     17.84% |           0      0.00%     17.84% |           0      0.00%     17.84% |           0      0.00%     17.84% |           0      0.00%     17.84% |           0      0.00%     17.84% |           0      0.00%     17.84% |           0      0.00%     17.84% |           0      0.00%     17.84% |           0      0.00%     17.84% |           0      0.00%     17.84% |           0      0.00%     17.84% |           0      0.00%     17.84% |           0      0.00%     17.84% |           0      0.00%     17.84% |           0      0.00%     17.84% |           0      0.00%     17.84% |           0      0.00%     17.84% |           0      0.00%     17.84% |           0      0.00%     17.84% |           0      0.00%     17.84% |           0      0.00%     17.84% |           0      0.00%     17.84% |           0      0.00%     17.84% |           0      0.00%     17.84% |           0      0.00%     17.84% |           0      0.00%     17.84% |           0      0.00%     17.84% |           0      0.00%     17.84% |           0      0.00%     17.84% |           0      0.00%     17.84% |           0      0.00%     17.84% |           0      0.00%     17.84% |           0      0.00%     17.84% |           0      0.00%     17.84% |           0      0.00%     17.84% |           0      0.00%     17.84% |           0      0.00%     17.84% |           0      0.00%     17.84% |           0      0.00%     17.84% |           0      0.00%     17.84% |           0      0.00%     17.84% |           0      0.00%     17.84% |           0      0.00%     17.84% |           0      0.00%     17.84% |           0      0.00%     17.84% |           0      0.00%     17.84% |           0      0.00%     17.84% |           0      0.00%     17.84% |           0      0.00%     17.84% |           0      0.00%     17.84% |           0      0.00%     17.84% |           0      0.00%     17.84% |           0      0.00%     17.84% |           0      0.00%     17.84% |           0      0.00%     17.84% |           0      0.00%     17.84% |           0      0.00%     17.84% |           0      0.00%     17.84% |           0      0.00%     17.84% |           0      0.00%     17.84% |           0      0.00%     17.84% |           0      0.00%     17.84% |           0      0.00%     17.84% |           0      0.00%     17.84% |           0      0.00%     17.84% |           0      0.00%     17.84% |           2      0.41%     18.26% |          10      2.07%     20.33% |          18      3.73%     24.07% |          10      2.07%     26.14% |          26      5.39%     31.54% |           8      1.66%     33.20% |          21      4.36%     37.55% |          19      3.94%     41.49% |           1      0.21%     41.70% |          17      3.53%     45.23% |          17      3.53%     48.76% |           3      0.62%     49.38% |           0      0.00%     49.38% |           7      1.45%     50.83% |           3      0.62%     51.45% |           5      1.04%     52.49% |           3      0.62%     53.11% |           3      0.62%     53.73% |           0      0.00%     53.73% |           2      0.41%     54.15% |           0      0.00%     54.15% |           0      0.00%     54.15% |         100     20.75%     74.90% |          57     11.83%     86.72% |           0      0.00%     86.72% # delay distribution for all (Unspecified)
system.cpu1.allLatencyDist::overflows              64     13.28%    100.00% # delay distribution for all (Unspecified)
system.cpu1.allLatencyDist::min_value          111000                       # delay distribution for all (Unspecified)
system.cpu1.allLatencyDist::max_value         3038000                       # delay distribution for all (Unspecified)
system.cpu1.allLatencyDist::total                 482                       # delay distribution for all (Unspecified)
system.cpu1.loadLatencyDist::bucket_size        10000                       # delay distribution for loads (Unspecified)
system.cpu1.loadLatencyDist::min_bucket             0                       # delay distribution for loads (Unspecified)
system.cpu1.loadLatencyDist::max_bucket       1599999                       # delay distribution for loads (Unspecified)
system.cpu1.loadLatencyDist::samples              249                       # delay distribution for loads (Unspecified)
system.cpu1.loadLatencyDist::mean        1540032.128514                       # delay distribution for loads (Unspecified)
system.cpu1.loadLatencyDist::stdev       659526.142647                       # delay distribution for loads (Unspecified)
system.cpu1.loadLatencyDist::underflows             0      0.00%      0.00% # delay distribution for loads (Unspecified)
system.cpu1.loadLatencyDist              |           0      0.00%      0.00% |           0      0.00%      0.00% |           0      0.00%      0.00% |           0      0.00%      0.00% |           0      0.00%      0.00% |           0      0.00%      0.00% |           0      0.00%      0.00% |           0      0.00%      0.00% |           0      0.00%      0.00% |           0      0.00%      0.00% |           0      0.00%      0.00% |           3      1.20%      1.20% |           0      0.00%      1.20% |           0      0.00%      1.20% |           0      0.00%      1.20% |           0      0.00%      1.20% |           0      0.00%      1.20% |           0      0.00%      1.20% |           0      0.00%      1.20% |           0      0.00%      1.20% |           0      0.00%      1.20% |           0      0.00%      1.20% |           0      0.00%      1.20% |           0      0.00%      1.20% |           0      0.00%      1.20% |           0      0.00%      1.20% |           0      0.00%      1.20% |           0      0.00%      1.20% |           0      0.00%      1.20% |           1      0.40%      1.61% |           0      0.00%      1.61% |           0      0.00%      1.61% |           3      1.20%      2.81% |           4      1.61%      4.42% |           3      1.20%      5.62% |           0      0.00%      5.62% |           0      0.00%      5.62% |           0      0.00%      5.62% |           2      0.80%      6.43% |           1      0.40%      6.83% |           0      0.00%      6.83% |           0      0.00%      6.83% |           1      0.40%      7.23% |           1      0.40%      7.63% |           0      0.00%      7.63% |           0      0.00%      7.63% |           1      0.40%      8.03% |           1      0.40%      8.43% |           2      0.80%      9.24% |           1      0.40%      9.64% |           0      0.00%      9.64% |           1      0.40%     10.04% |           2      0.80%     10.84% |           0      0.00%     10.84% |           0      0.00%     10.84% |           1      0.40%     11.24% |           0      0.00%     11.24% |           0      0.00%     11.24% |           0      0.00%     11.24% |           0      0.00%     11.24% |           0      0.00%     11.24% |           0      0.00%     11.24% |           0      0.00%     11.24% |           0      0.00%     11.24% |           0      0.00%     11.24% |           0      0.00%     11.24% |           0      0.00%     11.24% |           0      0.00%     11.24% |           0      0.00%     11.24% |           0      0.00%     11.24% |           0      0.00%     11.24% |           0      0.00%     11.24% |           0      0.00%     11.24% |           0      0.00%     11.24% |           0      0.00%     11.24% |           0      0.00%     11.24% |           0      0.00%     11.24% |           0      0.00%     11.24% |           0      0.00%     11.24% |           0      0.00%     11.24% |           0      0.00%     11.24% |           0      0.00%     11.24% |           0      0.00%     11.24% |           0      0.00%     11.24% |           0      0.00%     11.24% |           0      0.00%     11.24% |           0      0.00%     11.24% |           0      0.00%     11.24% |           0      0.00%     11.24% |           0      0.00%     11.24% |           0      0.00%     11.24% |           0      0.00%     11.24% |           0      0.00%     11.24% |           0      0.00%     11.24% |           0      0.00%     11.24% |           0      0.00%     11.24% |           0      0.00%     11.24% |           0      0.00%     11.24% |           0      0.00%     11.24% |           0      0.00%     11.24% |           0      0.00%     11.24% |           0      0.00%     11.24% |           0      0.00%     11.24% |           0      0.00%     11.24% |           0      0.00%     11.24% |           0      0.00%     11.24% |           0      0.00%     11.24% |           0      0.00%     11.24% |           0      0.00%     11.24% |           0      0.00%     11.24% |           0      0.00%     11.24% |           0      0.00%     11.24% |           0      0.00%     11.24% |           0      0.00%     11.24% |           0      0.00%     11.24% |           0      0.00%     11.24% |           0      0.00%     11.24% |           0      0.00%     11.24% |           0      0.00%     11.24% |           0      0.00%     11.24% |           0      0.00%     11.24% |           0      0.00%     11.24% |           0      0.00%     11.24% |           0      0.00%     11.24% |           0      0.00%     11.24% |           0      0.00%     11.24% |           0      0.00%     11.24% |           0      0.00%     11.24% |           0      0.00%     11.24% |           0      0.00%     11.24% |           0      0.00%     11.24% |           0      0.00%     11.24% |           0      0.00%     11.24% |           0      0.00%     11.24% |           0      0.00%     11.24% |           2      0.80%     12.05% |          10      4.02%     16.06% |          18      7.23%     23.29% |          10      4.02%     27.31% |          26     10.44%     37.75% |           8      3.21%     40.96% |          21      8.43%     49.40% |          19      7.63%     57.03% |           1      0.40%     57.43% |          17      6.83%     64.26% |          17      6.83%     71.08% |           3      1.20%     72.29% |           0      0.00%     72.29% |           7      2.81%     75.10% |           3      1.20%     76.31% |           5      2.01%     78.31% |           3      1.20%     79.52% |           3      1.20%     80.72% |           0      0.00%     80.72% |           2      0.80%     81.53% |           0      0.00%     81.53% |           0      0.00%     81.53% |           0      0.00%     81.53% |           0      0.00%     81.53% |           0      0.00%     81.53% # delay distribution for loads (Unspecified)
system.cpu1.loadLatencyDist::overflows             46     18.47%    100.00% # delay distribution for loads (Unspecified)
system.cpu1.loadLatencyDist::min_value         111000                       # delay distribution for loads (Unspecified)
system.cpu1.loadLatencyDist::max_value        3038000                       # delay distribution for loads (Unspecified)
system.cpu1.loadLatencyDist::total                249                       # delay distribution for loads (Unspecified)
system.cpu1.storeLatencyDist::bucket_size        10000                       # delay distribution for stores (Unspecified)
system.cpu1.storeLatencyDist::min_bucket            0                       # delay distribution for stores (Unspecified)
system.cpu1.storeLatencyDist::max_bucket      1599999                       # delay distribution for stores (Unspecified)
system.cpu1.storeLatencyDist::samples             233                       # delay distribution for stores (Unspecified)
system.cpu1.storeLatencyDist::mean       1255030.042918                       # delay distribution for stores (Unspecified)
system.cpu1.storeLatencyDist::stdev      571952.549536                       # delay distribution for stores (Unspecified)
system.cpu1.storeLatencyDist::underflows            0      0.00%      0.00% # delay distribution for stores (Unspecified)
system.cpu1.storeLatencyDist             |           0      0.00%      0.00% |           0      0.00%      0.00% |           0      0.00%      0.00% |           0      0.00%      0.00% |           0      0.00%      0.00% |           0      0.00%      0.00% |           0      0.00%      0.00% |           0      0.00%      0.00% |           0      0.00%      0.00% |           0      0.00%      0.00% |           0      0.00%      0.00% |           0      0.00%      0.00% |           0      0.00%      0.00% |           0      0.00%      0.00% |           0      0.00%      0.00% |           0      0.00%      0.00% |           0      0.00%      0.00% |           0      0.00%      0.00% |           0      0.00%      0.00% |           0      0.00%      0.00% |           0      0.00%      0.00% |           0      0.00%      0.00% |           0      0.00%      0.00% |           0      0.00%      0.00% |           0      0.00%      0.00% |           1      0.43%      0.43% |          50     21.46%     21.89% |           7      3.00%     24.89% |           0      0.00%     24.89% |           0      0.00%     24.89% |           0      0.00%     24.89% |           0      0.00%     24.89% |           0      0.00%     24.89% |           0      0.00%     24.89% |           0      0.00%     24.89% |           0      0.00%     24.89% |           0      0.00%     24.89% |           0      0.00%     24.89% |           0      0.00%     24.89% |           0      0.00%     24.89% |           0      0.00%     24.89% |           0      0.00%     24.89% |           0      0.00%     24.89% |           0      0.00%     24.89% |           0      0.00%     24.89% |           0      0.00%     24.89% |           0      0.00%     24.89% |           0      0.00%     24.89% |           0      0.00%     24.89% |           0      0.00%     24.89% |           0      0.00%     24.89% |           0      0.00%     24.89% |           0      0.00%     24.89% |           0      0.00%     24.89% |           0      0.00%     24.89% |           0      0.00%     24.89% |           0      0.00%     24.89% |           0      0.00%     24.89% |           0      0.00%     24.89% |           0      0.00%     24.89% |           0      0.00%     24.89% |           0      0.00%     24.89% |           0      0.00%     24.89% |           0      0.00%     24.89% |           0      0.00%     24.89% |           0      0.00%     24.89% |           0      0.00%     24.89% |           0      0.00%     24.89% |           0      0.00%     24.89% |           0      0.00%     24.89% |           0      0.00%     24.89% |           0      0.00%     24.89% |           0      0.00%     24.89% |           0      0.00%     24.89% |           0      0.00%     24.89% |           0      0.00%     24.89% |           0      0.00%     24.89% |           0      0.00%     24.89% |           0      0.00%     24.89% |           0      0.00%     24.89% |           0      0.00%     24.89% |           0      0.00%     24.89% |           0      0.00%     24.89% |           0      0.00%     24.89% |           0      0.00%     24.89% |           0      0.00%     24.89% |           0      0.00%     24.89% |           0      0.00%     24.89% |           0      0.00%     24.89% |           0      0.00%     24.89% |           0      0.00%     24.89% |           0      0.00%     24.89% |           0      0.00%     24.89% |           0      0.00%     24.89% |           0      0.00%     24.89% |           0      0.00%     24.89% |           0      0.00%     24.89% |           0      0.00%     24.89% |           0      0.00%     24.89% |           0      0.00%     24.89% |           0      0.00%     24.89% |           0      0.00%     24.89% |           0      0.00%     24.89% |           0      0.00%     24.89% |           0      0.00%     24.89% |           0      0.00%     24.89% |           0      0.00%     24.89% |           0      0.00%     24.89% |           0      0.00%     24.89% |           0      0.00%     24.89% |           0      0.00%     24.89% |           0      0.00%     24.89% |           0      0.00%     24.89% |           0      0.00%     24.89% |           0      0.00%     24.89% |           0      0.00%     24.89% |           0      0.00%     24.89% |           0      0.00%     24.89% |           0      0.00%     24.89% |           0      0.00%     24.89% |           0      0.00%     24.89% |           0      0.00%     24.89% |           0      0.00%     24.89% |           0      0.00%     24.89% |           0      0.00%     24.89% |           0      0.00%     24.89% |           0      0.00%     24.89% |           0      0.00%     24.89% |           0      0.00%     24.89% |           0      0.00%     24.89% |           0      0.00%     24.89% |           0      0.00%     24.89% |           0      0.00%     24.89% |           0      0.00%     24.89% |           0      0.00%     24.89% |           0      0.00%     24.89% |           0      0.00%     24.89% |           0      0.00%     24.89% |           0      0.00%     24.89% |           0      0.00%     24.89% |           0      0.00%     24.89% |           0      0.00%     24.89% |           0      0.00%     24.89% |           0      0.00%     24.89% |           0      0.00%     24.89% |           0      0.00%     24.89% |           0      0.00%     24.89% |           0      0.00%     24.89% |           0      0.00%     24.89% |           0      0.00%     24.89% |           0      0.00%     24.89% |           0      0.00%     24.89% |           0      0.00%     24.89% |           0      0.00%     24.89% |           0      0.00%     24.89% |           0      0.00%     24.89% |           0      0.00%     24.89% |         100     42.92%     67.81% |          57     24.46%     92.27% |           0      0.00%     92.27% # delay distribution for stores (Unspecified)
system.cpu1.storeLatencyDist::overflows            18      7.73%    100.00% # delay distribution for stores (Unspecified)
system.cpu1.storeLatencyDist::min_value        255000                       # delay distribution for stores (Unspecified)
system.cpu1.storeLatencyDist::max_value       1667000                       # delay distribution for stores (Unspecified)
system.cpu1.storeLatencyDist::total               233                       # delay distribution for stores (Unspecified)
system.cpu1.initToCoalesceLatency::bucket_size        10000                       # Ticks from vmem inst initiateAcc to coalescer issue (Unspecified)
system.cpu1.initToCoalesceLatency::min_bucket            0                       # Ticks from vmem inst initiateAcc to coalescer issue (Unspecified)
system.cpu1.initToCoalesceLatency::max_bucket      1599999                       # Ticks from vmem inst initiateAcc to coalescer issue (Unspecified)
system.cpu1.initToCoalesceLatency::samples            0                       # Ticks from vmem inst initiateAcc to coalescer issue (Unspecified)
system.cpu1.initToCoalesceLatency::mean           nan                       # Ticks from vmem inst initiateAcc to coalescer issue (Unspecified)
system.cpu1.initToCoalesceLatency::stdev          nan                       # Ticks from vmem inst initiateAcc to coalescer issue (Unspecified)
system.cpu1.initToCoalesceLatency::underflows            0                       # Ticks from vmem inst initiateAcc to coalescer issue (Unspecified)
system.cpu1.initToCoalesceLatency        |           0                       |           0                       |           0                       |           0                       |           0                       |           0                       |           0                       |           0                       |           0                       |           0                       |           0                       |           0                       |           0                       |           0                       |           0                       |           0                       |           0                       |           0                       |           0                       |           0                       |           0                       |           0                       |           0                       |           0                       |           0                       |           0                       |           0                       |           0                       |           0                       |           0                       |           0                       |           0                       |           0                       |           0                       |           0                       |           0                       |           0                       |           0                       |           0                       |           0                       |           0                       |           0                       |           0                       |           0                       |           0                       |           0                       |           0                       |           0                       |           0                       |           0                       |           0                       |           0                       |           0                       |           0                       |           0                       |           0                       |           0                       |           0                       |           0                       |           0                       |           0                       |           0                       |           0                       |           0                       |           0                       |           0                       |           0                       |           0                       |           0                       |           0                       |           0                       |           0                       |           0                       |           0                       |           0                       |           0                       |           0                       |           0                       |           0                       |           0                       |           0                       |           0                       |           0                       |           0                       |           0                       |           0                       |           0                       |           0                       |           0                       |           0                       |           0                       |           0                       |           0                       |           0                       |           0                       |           0                       |           0                       |           0                       |           0                       |           0                       |           0                       |           0                       |           0                       |           0                       |           0                       |           0                       |           0                       |           0                       |           0                       |           0                       |           0                       |           0                       |           0                       |           0                       |           0                       |           0                       |           0                       |           0                       |           0                       |           0                       |           0                       |           0                       |           0                       |           0                       |           0                       |           0                       |           0                       |           0                       |           0                       |           0                       |           0                       |           0                       |           0                       |           0                       |           0                       |           0                       |           0                       |           0                       |           0                       |           0                       |           0                       |           0                       |           0                       |           0                       |           0                       |           0                       |           0                       |           0                       |           0                       |           0                       |           0                       |           0                       |           0                       |           0                       |           0                       |           0                       |           0                       |           0                       |           0                       |           0                       # Ticks from vmem inst initiateAcc to coalescer issue (Unspecified)
system.cpu1.initToCoalesceLatency::overflows            0                       # Ticks from vmem inst initiateAcc to coalescer issue (Unspecified)
system.cpu1.initToCoalesceLatency::min_value            0                       # Ticks from vmem inst initiateAcc to coalescer issue (Unspecified)
system.cpu1.initToCoalesceLatency::max_value            0                       # Ticks from vmem inst initiateAcc to coalescer issue (Unspecified)
system.cpu1.initToCoalesceLatency::total            0                       # Ticks from vmem inst initiateAcc to coalescer issue (Unspecified)
system.cpu1.rubyNetworkLatency::bucket_size        10000                       # Ticks from coalescer issue to coalescer hit callback (Unspecified)
system.cpu1.rubyNetworkLatency::min_bucket            0                       # Ticks from coalescer issue to coalescer hit callback (Unspecified)
system.cpu1.rubyNetworkLatency::max_bucket      1599999                       # Ticks from coalescer issue to coalescer hit callback (Unspecified)
system.cpu1.rubyNetworkLatency::samples             0                       # Ticks from coalescer issue to coalescer hit callback (Unspecified)
system.cpu1.rubyNetworkLatency::mean              nan                       # Ticks from coalescer issue to coalescer hit callback (Unspecified)
system.cpu1.rubyNetworkLatency::stdev             nan                       # Ticks from coalescer issue to coalescer hit callback (Unspecified)
system.cpu1.rubyNetworkLatency::underflows            0                       # Ticks from coalescer issue to coalescer hit callback (Unspecified)
system.cpu1.rubyNetworkLatency           |           0                       |           0                       |           0                       |           0                       |           0                       |           0                       |           0                       |           0                       |           0                       |           0                       |           0                       |           0                       |           0                       |           0                       |           0                       |           0                       |           0                       |           0                       |           0                       |           0                       |           0                       |           0                       |           0                       |           0                       |           0                       |           0                       |           0                       |           0                       |           0                       |           0                       |           0                       |           0                       |           0                       |           0                       |           0                       |           0                       |           0                       |           0                       |           0                       |           0                       |           0                       |           0                       |           0                       |           0                       |           0                       |           0                       |           0                       |           0                       |           0                       |           0                       |           0                       |           0                       |           0                       |           0                       |           0                       |           0                       |           0                       |           0                       |           0                       |           0                       |           0                       |           0                       |           0                       |           0                       |           0                       |           0                       |           0                       |           0                       |           0                       |           0                       |           0                       |           0                       |           0                       |           0                       |           0                       |           0                       |           0                       |           0                       |           0                       |           0                       |           0                       |           0                       |           0                       |           0                       |           0                       |           0                       |           0                       |           0                       |           0                       |           0                       |           0                       |           0                       |           0                       |           0                       |           0                       |           0                       |           0                       |           0                       |           0                       |           0                       |           0                       |           0                       |           0                       |           0                       |           0                       |           0                       |           0                       |           0                       |           0                       |           0                       |           0                       |           0                       |           0                       |           0                       |           0                       |           0                       |           0                       |           0                       |           0                       |           0                       |           0                       |           0                       |           0                       |           0                       |           0                       |           0                       |           0                       |           0                       |           0                       |           0                       |           0                       |           0                       |           0                       |           0                       |           0                       |           0                       |           0                       |           0                       |           0                       |           0                       |           0                       |           0                       |           0                       |           0                       |           0                       |           0                       |           0                       |           0                       |           0                       |           0                       |           0                       |           0                       |           0                       |           0                       |           0                       |           0                       |           0                       |           0                       |           0                       |           0                       # Ticks from coalescer issue to coalescer hit callback (Unspecified)
system.cpu1.rubyNetworkLatency::overflows            0                       # Ticks from coalescer issue to coalescer hit callback (Unspecified)
system.cpu1.rubyNetworkLatency::min_value            0                       # Ticks from coalescer issue to coalescer hit callback (Unspecified)
system.cpu1.rubyNetworkLatency::max_value            0                       # Ticks from coalescer issue to coalescer hit callback (Unspecified)
system.cpu1.rubyNetworkLatency::total               0                       # Ticks from coalescer issue to coalescer hit callback (Unspecified)
system.cpu1.gmEnqueueLatency::bucket_size        10000                       # Ticks from coalescer hit callback to GM pipe enqueue (Unspecified)
system.cpu1.gmEnqueueLatency::min_bucket            0                       # Ticks from coalescer hit callback to GM pipe enqueue (Unspecified)
system.cpu1.gmEnqueueLatency::max_bucket      1599999                       # Ticks from coalescer hit callback to GM pipe enqueue (Unspecified)
system.cpu1.gmEnqueueLatency::samples               0                       # Ticks from coalescer hit callback to GM pipe enqueue (Unspecified)
system.cpu1.gmEnqueueLatency::mean                nan                       # Ticks from coalescer hit callback to GM pipe enqueue (Unspecified)
system.cpu1.gmEnqueueLatency::stdev               nan                       # Ticks from coalescer hit callback to GM pipe enqueue (Unspecified)
system.cpu1.gmEnqueueLatency::underflows            0                       # Ticks from coalescer hit callback to GM pipe enqueue (Unspecified)
system.cpu1.gmEnqueueLatency             |           0                       |           0                       |           0                       |           0                       |           0                       |           0                       |           0                       |           0                       |           0                       |           0                       |           0                       |           0                       |           0                       |           0                       |           0                       |           0                       |           0                       |           0                       |           0                       |           0                       |           0                       |           0                       |           0                       |           0                       |           0                       |           0                       |           0                       |           0                       |           0                       |           0                       |           0                       |           0                       |           0                       |           0                       |           0                       |           0                       |           0                       |           0                       |           0                       |           0                       |           0                       |           0                       |           0                       |           0                       |           0                       |           0                       |           0                       |           0                       |           0                       |           0                       |           0                       |           0                       |           0                       |           0                       |           0                       |           0                       |           0                       |           0                       |           0                       |           0                       |           0                       |           0                       |           0                       |           0                       |           0                       |           0                       |           0                       |           0                       |           0                       |           0                       |           0                       |           0                       |           0                       |           0                       |           0                       |           0                       |           0                       |           0                       |           0                       |           0                       |           0                       |           0                       |           0                       |           0                       |           0                       |           0                       |           0                       |           0                       |           0                       |           0                       |           0                       |           0                       |           0                       |           0                       |           0                       |           0                       |           0                       |           0                       |           0                       |           0                       |           0                       |           0                       |           0                       |           0                       |           0                       |           0                       |           0                       |           0                       |           0                       |           0                       |           0                       |           0                       |           0                       |           0                       |           0                       |           0                       |           0                       |           0                       |           0                       |           0                       |           0                       |           0                       |           0                       |           0                       |           0                       |           0                       |           0                       |           0                       |           0                       |           0                       |           0                       |           0                       |           0                       |           0                       |           0                       |           0                       |           0                       |           0                       |           0                       |           0                       |           0                       |           0                       |           0                       |           0                       |           0                       |           0                       |           0                       |           0                       |           0                       |           0                       |           0                       |           0                       |           0                       |           0                       |           0                       |           0                       |           0                       |           0                       |           0                       |           0                       # Ticks from coalescer hit callback to GM pipe enqueue (Unspecified)
system.cpu1.gmEnqueueLatency::overflows             0                       # Ticks from coalescer hit callback to GM pipe enqueue (Unspecified)
system.cpu1.gmEnqueueLatency::min_value             0                       # Ticks from coalescer hit callback to GM pipe enqueue (Unspecified)
system.cpu1.gmEnqueueLatency::max_value             0                       # Ticks from coalescer hit callback to GM pipe enqueue (Unspecified)
system.cpu1.gmEnqueueLatency::total                 0                       # Ticks from coalescer hit callback to GM pipe enqueue (Unspecified)
system.cpu1.gmToCompleteLatency::bucket_size        10000                       # Ticks queued in GM pipes ordered response buffer (Unspecified)
system.cpu1.gmToCompleteLatency::min_bucket            0                       # Ticks queued in GM pipes ordered response buffer (Unspecified)
system.cpu1.gmToCompleteLatency::max_bucket      1599999                       # Ticks queued in GM pipes ordered response buffer (Unspecified)
system.cpu1.gmToCompleteLatency::samples            0                       # Ticks queued in GM pipes ordered response buffer (Unspecified)
system.cpu1.gmToCompleteLatency::mean             nan                       # Ticks queued in GM pipes ordered response buffer (Unspecified)
system.cpu1.gmToCompleteLatency::stdev            nan                       # Ticks queued in GM pipes ordered response buffer (Unspecified)
system.cpu1.gmToCompleteLatency::underflows            0                       # Ticks queued in GM pipes ordered response buffer (Unspecified)
system.cpu1.gmToCompleteLatency          |           0                       |           0                       |           0                       |           0                       |           0                       |           0                       |           0                       |           0                       |           0                       |           0                       |           0                       |           0                       |           0                       |           0                       |           0                       |           0                       |           0                       |           0                       |           0                       |           0                       |           0                       |           0                       |           0                       |           0                       |           0                       |           0                       |           0                       |           0                       |           0                       |           0                       |           0                       |           0                       |           0                       |           0                       |           0                       |           0                       |           0                       |           0                       |           0                       |           0                       |           0                       |           0                       |           0                       |           0                       |           0                       |           0                       |           0                       |           0                       |           0                       |           0                       |           0                       |           0                       |           0                       |           0                       |           0                       |           0                       |           0                       |           0                       |           0                       |           0                       |           0                       |           0                       |           0                       |           0                       |           0                       |           0                       |           0                       |           0                       |           0                       |           0                       |           0                       |           0                       |           0                       |           0                       |           0                       |           0                       |           0                       |           0                       |           0                       |           0                       |           0                       |           0                       |           0                       |           0                       |           0                       |           0                       |           0                       |           0                       |           0                       |           0                       |           0                       |           0                       |           0                       |           0                       |           0                       |           0                       |           0                       |           0                       |           0                       |           0                       |           0                       |           0                       |           0                       |           0                       |           0                       |           0                       |           0                       |           0                       |           0                       |           0                       |           0                       |           0                       |           0                       |           0                       |           0                       |           0                       |           0                       |           0                       |           0                       |           0                       |           0                       |           0                       |           0                       |           0                       |           0                       |           0                       |           0                       |           0                       |           0                       |           0                       |           0                       |           0                       |           0                       |           0                       |           0                       |           0                       |           0                       |           0                       |           0                       |           0                       |           0                       |           0                       |           0                       |           0                       |           0                       |           0                       |           0                       |           0                       |           0                       |           0                       |           0                       |           0                       |           0                       |           0                       |           0                       |           0                       |           0                       |           0                       |           0                       |           0                       # Ticks queued in GM pipes ordered response buffer (Unspecified)
system.cpu1.gmToCompleteLatency::overflows            0                       # Ticks queued in GM pipes ordered response buffer (Unspecified)
system.cpu1.gmToCompleteLatency::min_value            0                       # Ticks queued in GM pipes ordered response buffer (Unspecified)
system.cpu1.gmToCompleteLatency::max_value            0                       # Ticks queued in GM pipes ordered response buffer (Unspecified)
system.cpu1.gmToCompleteLatency::total              0                       # Ticks queued in GM pipes ordered response buffer (Unspecified)
system.cpu1.coalsrLineAddresses::bucket_size            1                       # Number of cache lines for coalesced request (Unspecified)
system.cpu1.coalsrLineAddresses::min_bucket            0                       # Number of cache lines for coalesced request (Unspecified)
system.cpu1.coalsrLineAddresses::max_bucket           20                       # Number of cache lines for coalesced request (Unspecified)
system.cpu1.coalsrLineAddresses::samples          482                       # Number of cache lines for coalesced request (Unspecified)
system.cpu1.coalsrLineAddresses::mean               0                       # Number of cache lines for coalesced request (Unspecified)
system.cpu1.coalsrLineAddresses::stdev              0                       # Number of cache lines for coalesced request (Unspecified)
system.cpu1.coalsrLineAddresses::underflows            0      0.00%      0.00% # Number of cache lines for coalesced request (Unspecified)
system.cpu1.coalsrLineAddresses          |         482    100.00%    100.00% |           0      0.00%    100.00% |           0      0.00%    100.00% |           0      0.00%    100.00% |           0      0.00%    100.00% |           0      0.00%    100.00% |           0      0.00%    100.00% |           0      0.00%    100.00% |           0      0.00%    100.00% |           0      0.00%    100.00% |           0      0.00%    100.00% |           0      0.00%    100.00% |           0      0.00%    100.00% |           0      0.00%    100.00% |           0      0.00%    100.00% |           0      0.00%    100.00% |           0      0.00%    100.00% |           0      0.00%    100.00% |           0      0.00%    100.00% |           0      0.00%    100.00% |           0      0.00%    100.00% # Number of cache lines for coalesced request (Unspecified)
system.cpu1.coalsrLineAddresses::overflows            0      0.00%    100.00% # Number of cache lines for coalesced request (Unspecified)
system.cpu1.coalsrLineAddresses::min_value            0                       # Number of cache lines for coalesced request (Unspecified)
system.cpu1.coalsrLineAddresses::max_value            0                       # Number of cache lines for coalesced request (Unspecified)
system.cpu1.coalsrLineAddresses::total            482                       # Number of cache lines for coalesced request (Unspecified)
system.cpu1.shaderActiveTicks                64524997                       # Total ticks that any CU attached to this shader is active (Unspecified)
system.cpu1.vectorInstSrcOperand::0             23291                       # vector instruction source operand distribution (Unspecified)
system.cpu1.vectorInstSrcOperand::1             21947                       # vector instruction source operand distribution (Unspecified)
system.cpu1.vectorInstSrcOperand::2               237                       # vector instruction source operand distribution (Unspecified)
system.cpu1.vectorInstSrcOperand::3                15                       # vector instruction source operand distribution (Unspecified)
system.cpu1.vectorInstDstOperand::0             20157                       # vector instruction destination operand distribution (Unspecified)
system.cpu1.vectorInstDstOperand::1             25333                       # vector instruction destination operand distribution (Unspecified)
system.cpu1.vectorInstDstOperand::2                 0                       # vector instruction destination operand distribution (Unspecified)
system.cpu1.vectorInstDstOperand::3                 0                       # vector instruction destination operand distribution (Unspecified)
system.cpu1.CUs0.vALUInsts                       7088                       # Number of vector ALU insts issued. (Unspecified)
system.cpu1.CUs0.vALUInstsPerWF             32.218182                       # The avg. number of vector ALU insts issued per-wavefront. (Unspecified)
system.cpu1.CUs0.sALUInsts                       1150                       # Number of scalar ALU insts issued. (Unspecified)
system.cpu1.CUs0.sALUInstsPerWF              5.227273                       # The avg. number of scalar ALU insts issued per-wavefront. (Unspecified)
system.cpu1.CUs0.instCyclesVALU                  7088                       # Number of cycles needed to execute VALU insts. (Unspecified)
system.cpu1.CUs0.instCyclesSALU                  1150                       # Number of cycles needed to execute SALU insts. (Unspecified)
system.cpu1.CUs0.threadCyclesVALU              453632                       # Number of thread cycles used to execute vector ALU ops. Similar to instCyclesVALU but multiplied by the number of active threads. (Unspecified)
system.cpu1.CUs0.vALUUtilization                  100                       # Percentage of active vector ALU threads in a wave. (Unspecified)
system.cpu1.CUs0.ldsNoFlatInsts                     0                       # Number of LDS insts issued, not including FLAT accesses that resolve to LDS. (Unspecified)
system.cpu1.CUs0.ldsNoFlatInstsPerWF                0                       # The avg. number of LDS insts (not including FLAT accesses that resolve to LDS) per-wavefront. (Unspecified)
system.cpu1.CUs0.flatVMemInsts                    158                       # The number of FLAT insts that resolve to vmem issued. (Unspecified)
system.cpu1.CUs0.flatVMemInstsPerWF          0.718182                       # The average number of FLAT insts that resolve to vmem issued per-wavefront. (Unspecified)
system.cpu1.CUs0.flatLDSInsts                       0                       # The number of FLAT insts that resolve to LDS issued. (Unspecified)
system.cpu1.CUs0.flatLDSInstsPerWF                  0                       # The average number of FLAT insts that resolve to LDS issued per-wavefront. (Unspecified)
system.cpu1.CUs0.vectorMemWrites                    0                       # Number of vector mem write insts (excluding FLAT insts). (Unspecified)
system.cpu1.CUs0.vectorMemWritesPerWF               0                       # The average number of vector mem write insts (excluding FLAT insts) per-wavefront. (Unspecified)
system.cpu1.CUs0.vectorMemReads                     0                       # Number of vector mem read insts (excluding FLAT insts). (Unspecified)
system.cpu1.CUs0.vectorMemReadsPerWF                0                       # The avg. number of vector mem read insts (excluding FLAT insts) per-wavefront. (Unspecified)
system.cpu1.CUs0.scalarMemWrites                    0                       # Number of scalar mem write insts. (Unspecified)
system.cpu1.CUs0.scalarMemWritesPerWF               0                       # The average number of scalar mem write insts per-wavefront. (Unspecified)
system.cpu1.CUs0.scalarMemReads                  1316                       # Number of scalar mem read insts. (Unspecified)
system.cpu1.CUs0.scalarMemReadsPerWF         5.981818                       # The average number of scalar mem read insts per-wavefront. (Unspecified)
system.cpu1.CUs0.vectorMemReadsPerKiloInst            0                       # Number of vector mem reads per kilo-instruction (Unspecified)
system.cpu1.CUs0.vectorMemWritesPerKiloInst            0                       # Number of vector mem writes per kilo-instruction (Unspecified)
system.cpu1.CUs0.vectorMemInstsPerKiloInst            0                       # Number of vector mem insts per kilo-instruction (Unspecified)
system.cpu1.CUs0.scalarMemReadsPerKiloInst   117.374242                       # Number of scalar mem reads per kilo-instruction (Unspecified)
system.cpu1.CUs0.scalarMemWritesPerKiloInst            0                       # Number of scalar mem writes per kilo-instruction (Unspecified)
system.cpu1.CUs0.scalarMemInstsPerKiloInst   117.374242                       # Number of scalar mem insts per kilo-instruction (Unspecified)
system.cpu1.CUs0.instCyclesVMemPerSimd::0          106                       # Number of cycles to send address, command, data from VRF to vector memory unit, per SIMD (Unspecified)
system.cpu1.CUs0.instCyclesVMemPerSimd::1           42                       # Number of cycles to send address, command, data from VRF to vector memory unit, per SIMD (Unspecified)
system.cpu1.CUs0.instCyclesVMemPerSimd::2           42                       # Number of cycles to send address, command, data from VRF to vector memory unit, per SIMD (Unspecified)
system.cpu1.CUs0.instCyclesVMemPerSimd::3           39                       # Number of cycles to send address, command, data from VRF to vector memory unit, per SIMD (Unspecified)
system.cpu1.CUs0.instCyclesScMemPerSimd::0          320                       # Number of cycles to send address, command, data from SRF to scalar memory unit, per SIMD (Unspecified)
system.cpu1.CUs0.instCyclesScMemPerSimd::1          312                       # Number of cycles to send address, command, data from SRF to scalar memory unit, per SIMD (Unspecified)
system.cpu1.CUs0.instCyclesScMemPerSimd::2          312                       # Number of cycles to send address, command, data from SRF to scalar memory unit, per SIMD (Unspecified)
system.cpu1.CUs0.instCyclesScMemPerSimd::3          372                       # Number of cycles to send address, command, data from SRF to scalar memory unit, per SIMD (Unspecified)
system.cpu1.CUs0.instCyclesLdsPerSimd::0            0                       # Number of cycles to send address, command, data from VRF to LDS unit, per SIMD (Unspecified)
system.cpu1.CUs0.instCyclesLdsPerSimd::1            0                       # Number of cycles to send address, command, data from VRF to LDS unit, per SIMD (Unspecified)
system.cpu1.CUs0.instCyclesLdsPerSimd::2            0                       # Number of cycles to send address, command, data from VRF to LDS unit, per SIMD (Unspecified)
system.cpu1.CUs0.instCyclesLdsPerSimd::3            0                       # Number of cycles to send address, command, data from VRF to LDS unit, per SIMD (Unspecified)
system.cpu1.CUs0.globalReads                       87                       # Number of reads to the global segment (Unspecified)
system.cpu1.CUs0.globalWrites                      71                       # Number of writes to the global segment (Unspecified)
system.cpu1.CUs0.globalMemInsts                   158                       # Number of memory instructions sent to the global segment (Unspecified)
[...]
system.Shader.cacheBlockRoundTrip8::overflows            0                       # Coalsr-to-coalsr time for the Nth cache block in an inst (Unspecified)
system.Shader.cacheBlockRoundTrip8::min_value            0                       # Coalsr-to-coalsr time for the Nth cache block in an inst (Unspecified)
system.Shader.cacheBlockRoundTrip8::max_value            0                       # Coalsr-to-coalsr time for the Nth cache block in an inst (Unspecified)
system.Shader.cacheBlockRoundTrip8::total            0                       # Coalsr-to-coalsr time for the Nth cache block in an inst (Unspecified)
system.Shader.cacheBlockRoundTrip9::bucket_size        10000                       # Coalsr-to-coalsr time for the Nth cache block in an inst (Unspecified)
system.Shader.cacheBlockRoundTrip9::min_bucket            0                       # Coalsr-to-coalsr time for the Nth cache block in an inst (Unspecified)
system.Shader.cacheBlockRoundTrip9::max_bucket      1599999                       # Coalsr-to-coalsr time for the Nth cache block in an inst (Unspecified)
system.Shader.cacheBlockRoundTrip9::samples            0                       # Coalsr-to-coalsr time for the Nth cache block in an inst (Unspecified)
system.Shader.cacheBlockRoundTrip9::mean          nan                       # Coalsr-to-coalsr time for the Nth cache block in an inst (Unspecified)
system.Shader.cacheBlockRoundTrip9::stdev          nan                       # Coalsr-to-coalsr time for the Nth cache block in an inst (Unspecified)
system.Shader.cacheBlockRoundTrip9::underflows            0                       # Coalsr-to-coalsr time for the Nth cache block in an inst (Unspecified)
system.Shader.cacheBlockRoundTrip9       |           0                       |           0                       |           0                       |           0                       |           0                       |           0                       |           0                       |           0                       |           0                       |           0                       |           0                       |           0                       |           0                       |           0                       |           0                       |           0                       |           0                       |           0                       |           0                       |           0                       |           0                       |           0                       |           0                       |           0                       |           0                       |           0                       |           0                       |           0                       |           0                       |           0                       |           0                       |           0                       |           0                       |           0                       |           0                       |           0                       |           0                       |           0                       |           0                       |           0                       |           0                       |           0                       |           0                       |           0                       |           0                       |           0                       |           0                       |           0                       |           0                       |           0                       |           0                       |           0                       |           0                       |           0                       |           0                       |           0                       |           0                       |           0                       |           0                       |           0                       |           0                       |           0                       |           0                       |           0                       |           0                       |           0                       |           0                       |           0                       |           0                       |           0                       |           0                       |           0                       |           0                       |           0                       |           0                       |           0                       |           0                       |           0                       |           0                       |           0                       |           0                       |           0                       |           0                       |           0                       |           0                       |           0                       |           0                       |           0                       |           0                       |           0                       |           0                       |           0                       |           0                       |           0                       |           0                       |           0                       |           0                       |           0                       |           0                       |           0                       |           0                       |           0                       |           0                       |           0                       |           0                       |           0                       |           0                       |           0                       |           0                       |           0                       |           0                       |           0                       |           0                       |           0                       |           0                       |           0                       |           0                       |           0                       |           0                       |           0                       |           0                       |           0                       |           0                       |           0                       |           0                       |           0                       |           0                       |           0                       |           0                       |           0                       |           0                       |           0                       |           0                       |           0                       |           0                       |           0                       |           0                       |           0                       |           0                       |           0                       |           0                       |           0                       |           0                       |           0                       |           0                       |           0                       |           0                       |           0                       |           0                       |           0                       |           0                       |           0                       |           0                       |           0                       |           0                       |           0                       |           0                       |           0                       |           0                       |           0                       # Coalsr-to-coalsr time for the Nth cache block in an inst (Unspecified)
system.Shader.cacheBlockRoundTrip9::overflows            0                       # Coalsr-to-coalsr time for the Nth cache block in an inst (Unspecified)
system.Shader.cacheBlockRoundTrip9::min_value            0                       # Coalsr-to-coalsr time for the Nth cache block in an inst (Unspecified)
system.Shader.cacheBlockRoundTrip9::max_value            0                       # Coalsr-to-coalsr time for the Nth cache block in an inst (Unspecified)
system.Shader.cacheBlockRoundTrip9::total            0                       # Coalsr-to-coalsr time for the Nth cache block in an inst (Unspecified)
system.l1_coalescer0.coalesced_accesses           158                       # Number of coalesced TLB accesses (Unspecified)
system.l1_coalescer0.latency               837.322785                       # Avg. latency over all incoming pkts (Unspecified)
system.l1_coalescer0.local_cycles             8467008                       # Number of cycles spent in queue for all incoming reqs (Unspecified)
system.l1_coalescer0.local_latency         587.329114                       # Avg. latency over all incoming pkts (Unspecified)
system.l1_coalescer0.local_queuing_cycles      5939072                       # Number of cycles spent in queue for all incoming reqs (Unspecified)
system.l1_coalescer0.queuing_cycles           5939072                       # Number of cycles spent in queue (Unspecified)
system.l1_coalescer0.uncoalesced_accesses        10112                       # Number of uncoalesced TLB accesses (Unspecified)
system.l1_coalescer1.coalesced_accesses           106                       # Number of coalesced TLB accesses (Unspecified)
system.l1_coalescer1.latency              1178.453737                       # Avg. latency over all incoming pkts (Unspecified)
system.l1_coalescer1.local_cycles             7947492                       # Number of cycles spent in queue for all incoming reqs (Unspecified)
system.l1_coalescer1.local_latency         824.267497                       # Avg. latency over all incoming pkts (Unspecified)
system.l1_coalescer1.local_queuing_cycles      5558860                       # Number of cycles spent in queue for all incoming reqs (Unspecified)
system.l1_coalescer1.queuing_cycles           5558860                       # Number of cycles spent in queue (Unspecified)
system.l1_coalescer1.uncoalesced_accesses         6744                       # Number of uncoalesced TLB accesses (Unspecified)
system.l1_coalescer2.coalesced_accesses           110                       # Number of coalesced TLB accesses (Unspecified)
system.l1_coalescer2.latency              1169.427336                       # Avg. latency over all incoming pkts (Unspecified)
system.l1_coalescer2.local_cycles             8111148                       # Number of cycles spent in queue for all incoming reqs (Unspecified)
system.l1_coalescer2.local_latency         827.435409                       # Avg. latency over all incoming pkts (Unspecified)
system.l1_coalescer2.local_queuing_cycles      5739092                       # Number of cycles spent in queue for all incoming reqs (Unspecified)
system.l1_coalescer2.queuing_cycles           5739092                       # Number of cycles spent in queue (Unspecified)
system.l1_coalescer2.uncoalesced_accesses         6936                       # Number of uncoalesced TLB accesses (Unspecified)
system.l1_coalescer3.coalesced_accesses           108                       # Number of coalesced TLB accesses (Unspecified)
system.l1_coalescer3.latency              1176.546296                       # Avg. latency over all incoming pkts (Unspecified)
system.l1_coalescer3.local_cycles             8132288                       # Number of cycles spent in queue for all incoming reqs (Unspecified)
system.l1_coalescer3.local_latency         832.203704                       # Avg. latency over all incoming pkts (Unspecified)
system.l1_coalescer3.local_queuing_cycles      5752192                       # Number of cycles spent in queue for all incoming reqs (Unspecified)
system.l1_coalescer3.queuing_cycles           5752192                       # Number of cycles spent in queue (Unspecified)
system.l1_coalescer3.uncoalesced_accesses         6912                       # Number of uncoalesced TLB accesses (Unspecified)
system.l2_coalescer.coalesced_accesses            110                       # Number of coalesced TLB accesses (Unspecified)
system.l2_coalescer.latency               1309.483051                       # Avg. latency over all incoming pkts (Unspecified)
system.l2_coalescer.local_cycles               154519                       # Number of cycles spent in queue for all incoming reqs (Unspecified)
system.l2_coalescer.local_latency          893.279661                       # Avg. latency over all incoming pkts (Unspecified)
system.l2_coalescer.local_queuing_cycles       105407                       # Number of cycles spent in queue for all incoming reqs (Unspecified)
system.l2_coalescer.queuing_cycles            6745813                       # Number of cycles spent in queue (Unspecified)
system.l2_coalescer.uncoalesced_accesses          118                       # Number of uncoalesced TLB accesses (Unspecified)
system.l3_coalescer.coalesced_accesses             33                       # Number of coalesced TLB accesses (Unspecified)
system.l3_coalescer.latency               1240.515152                       # Avg. latency over all incoming pkts (Unspecified)
system.l3_coalescer.local_cycles                40937                       # Number of cycles spent in queue for all incoming reqs (Unspecified)
system.l3_coalescer.local_latency                   1                       # Avg. latency over all incoming pkts (Unspecified)
system.l3_coalescer.local_queuing_cycles           33                       # Number of cycles spent in queue for all incoming reqs (Unspecified)
system.l3_coalescer.queuing_cycles               1940                       # Number of cycles spent in queue (Unspecified)
system.l3_coalescer.uncoalesced_accesses           33                       # Number of uncoalesced TLB accesses (Unspecified)
system.scalar_coalescer.coalesced_accesses         4663                       # Number of coalesced TLB accesses (Unspecified)
system.scalar_coalescer.latency             26.158795                       # Avg. latency over all incoming pkts (Unspecified)
system.scalar_coalescer.local_cycles           140682                       # Number of cycles spent in queue for all incoming reqs (Unspecified)
system.scalar_coalescer.local_latency       24.182410                       # Avg. latency over all incoming pkts (Unspecified)
system.scalar_coalescer.local_queuing_cycles       130053                       # Number of cycles spent in queue for all incoming reqs (Unspecified)
system.scalar_coalescer.queuing_cycles         130053                       # Number of cycles spent in queue (Unspecified)
system.scalar_coalescer.uncoalesced_accesses         5378                       # Number of uncoalesced TLB accesses (Unspecified)
system.sqc_coalescer.coalesced_accesses          7030                       # Number of coalesced TLB accesses (Unspecified)
system.sqc_coalescer.latency                 5.738512                       # Avg. latency over all incoming pkts (Unspecified)
system.sqc_coalescer.local_cycles               48829                       # Number of cycles spent in queue for all incoming reqs (Unspecified)
system.sqc_coalescer.local_latency           2.212363                       # Avg. latency over all incoming pkts (Unspecified)
system.sqc_coalescer.local_queuing_cycles        18825                       # Number of cycles spent in queue for all incoming reqs (Unspecified)
system.sqc_coalescer.queuing_cycles             18825                       # Number of cycles spent in queue (Unspecified)
system.sqc_coalescer.uncoalesced_accesses         8509                       # Number of uncoalesced TLB accesses (Unspecified)

---------- End Simulation Statistics   ----------
