gem5 Simulator System.  https://www.gem5.org
gem5 is copyrighted software; use the --copyright option for details.

gem5 version 24.0.0.0
gem5 compiled Jul 25 2024 19:45:59
gem5 started Jul 30 2024 18:30:52
gem5 executing on codespaces-7fee64, pid 88686
command line: gem5 --outdir=m5out/timing-small-caches -re cores.py

info: Using default config
Global frequency set at 1000000000000 ticks per second
Populating the first and second matrix...
Done!
Multiplying the matrixes...
Done!
Calculating the sum of all elements in the matrix...
Done
The sum is 57238500000
