gem5 Simulator System.  https://www.gem5.org
gem5 is copyrighted software; use the --copyright option for details.

gem5 version 24.0.0.0
gem5 compiled Jul 25 2024 19:45:59
gem5 started Jul 31 2024 17:15:44
gem5 executing on codespaces-1d9eeb, pid 2988
command line: gem5 -re --outdir=full-detailed-run-m5out full-detailed-run.py

Global frequency set at 1000000000000 ticks per second
Sum: 332833500000
Simulation Done
