
---------- Begin Simulation Statistics ----------
simSeconds                                  12.404104                       # Number of seconds simulated (Second)
simTicks                                 12404104088500                       # Number of ticks simulated (Tick)
finalTick                                12404104088500                       # Number of ticks from beginning of simulation (restored from checkpoints and never reset) (Tick)
simFreq                                  1000000000000                       # The number of ticks per simulated second ((Tick/Second))
hostSeconds                                     26.71                       # Real time elapsed on the host (Second)
hostTickRate                             464323147951                       # The number of ticks simulated per host second (ticks/s) ((Tick/Second))
hostMemory                                   29133948                       # Number of bytes of host memory used (Byte)
system.clk_domain.clock                          1000                       # Clock period in ticks (Tick)
system.cpu0.numCycles                     44027905705                       # Number of cpu cycles simulated (Cycle)
system.cpu0.cpi                                   inf                       # CPI: cycles per instruction (core level) ((Cycle/Count))
system.cpu0.ipc                              0.000000                       # IPC: instructions per cycle (core level) ((Count/Cycle))
system.cpu0.numWorkItemsStarted                     0                       # Number of work items this cpu started (Count)
system.cpu0.numWorkItemsCompleted                   0                       # Number of work items this cpu completed (Count)
system.cpu0.numVMExits                         995844                       # total number of KVM exits (Count)
system.cpu0.numVMHalfEntries                       47                       # number of KVM entries to finalize pending operations (Count)
system.cpu0.numExitSignal                      633279                       # exits due to signal delivery (Count)
system.cpu0.numMMIO                             44164                       # number of VM exits due to memory mapped IO (Count)
system.cpu0.numCoalescedMMIO                        0                       # number of coalesced memory mapped IO requests (Count)
system.cpu0.numIO                              310726                       # number of VM exits due to legacy IO (Count)
system.cpu0.numHalt                                30                       # number of VM exits due to wait for interrupt instructions (Count)
system.cpu0.numInterrupts                        9065                       # number of interrupts delivered (Count)
system.cpu0.numHypercalls                           0                       # number of hypercalls (Count)
system.cpu0.commitStats0.numOps                     0                       # Number of ops (including micro ops) committed (thread level) (Count)
system.cpu0.commitStats0.numInstsNotNOP             0                       # Number of instructions committed excluding NOPs or prefetches (Count)
system.cpu0.commitStats0.numOpsNotNOP               0                       # Number of Ops (including micro ops) Simulated (Count)
system.cpu0.commitStats0.cpi                      inf                       # CPI: cycles per instruction (thread level) ((Cycle/Count))
system.cpu0.commitStats0.ipc                 0.000000                       # IPC: instructions per cycle (thread level) ((Count/Cycle))
system.cpu0.commitStats0.numMemRefs                 0                       # Number of memory references committed (Count)
system.cpu0.commitStats0.numFpInsts                 0                       # Number of float instructions (Count)
system.cpu0.commitStats0.numIntInsts                0                       # Number of integer instructions (Count)
system.cpu0.commitStats0.numLoadInsts               0                       # Number of load instructions (Count)
system.cpu0.commitStats0.numStoreInsts              0                       # Number of store instructions (Count)
system.cpu0.commitStats0.numVecInsts                0                       # Number of vector instructions (Count)
system.cpu0.commitStats0.committedInstType::No_OpClass            0                       # Class of committed instruction. (Count)
system.cpu0.commitStats0.committedInstType::IntAlu            0                       # Class of committed instruction. (Count)
system.cpu0.commitStats0.committedInstType::IntMult            0                       # Class of committed instruction. (Count)
system.cpu0.commitStats0.committedInstType::IntDiv            0                       # Class of committed instruction. (Count)
system.cpu0.commitStats0.committedInstType::FloatAdd            0                       # Class of committed instruction. (Count)
system.cpu0.commitStats0.committedInstType::FloatCmp            0                       # Class of committed instruction. (Count)
system.cpu0.commitStats0.committedInstType::FloatCvt            0                       # Class of committed instruction. (Count)
system.cpu0.commitStats0.committedInstType::FloatMult            0                       # Class of committed instruction. (Count)
system.cpu0.commitStats0.committedInstType::FloatMultAcc            0                       # Class of committed instruction. (Count)
system.cpu0.commitStats0.committedInstType::FloatDiv            0                       # Class of committed instruction. (Count)
system.cpu0.commitStats0.committedInstType::FloatMisc            0                       # Class of committed instruction. (Count)
system.cpu0.commitStats0.committedInstType::FloatSqrt            0                       # Class of committed instruction. (Count)
system.cpu0.commitStats0.committedInstType::SimdAdd            0                       # Class of committed instruction. (Count)
system.cpu0.commitStats0.committedInstType::SimdAddAcc            0                       # Class of committed instruction. (Count)
system.cpu0.commitStats0.committedInstType::SimdAlu            0                       # Class of committed instruction. (Count)
system.cpu0.commitStats0.committedInstType::SimdCmp            0                       # Class of committed instruction. (Count)
system.cpu0.commitStats0.committedInstType::SimdCvt            0                       # Class of committed instruction. (Count)
system.cpu0.commitStats0.committedInstType::SimdMisc            0                       # Class of committed instruction. (Count)
system.cpu0.commitStats0.committedInstType::SimdMult            0                       # Class of committed instruction. (Count)
system.cpu0.commitStats0.committedInstType::SimdMultAcc            0                       # Class of committed instruction. (Count)
system.cpu0.commitStats0.committedInstType::SimdMatMultAcc            0                       # Class of committed instruction. (Count)
system.cpu0.commitStats0.committedInstType::SimdShift            0                       # Class of committed instruction. (Count)
system.cpu0.commitStats0.committedInstType::SimdShiftAcc            0                       # Class of committed instruction. (Count)
system.cpu0.commitStats0.committedInstType::SimdDiv            0                       # Class of committed instruction. (Count)
system.cpu0.commitStats0.committedInstType::SimdSqrt            0                       # Class of committed instruction. (Count)
system.cpu0.commitStats0.committedInstType::SimdFloatAdd            0                       # Class of committed instruction. (Count)
system.cpu0.commitStats0.committedInstType::SimdFloatAlu            0                       # Class of committed instruction. (Count)
system.cpu0.commitStats0.committedInstType::SimdFloatCmp            0                       # Class of committed instruction. (Count)
system.cpu0.commitStats0.committedInstType::SimdFloatCvt            0                       # Class of committed instruction. (Count)
system.cpu0.commitStats0.committedInstType::SimdFloatDiv            0                       # Class of committed instruction. (Count)
system.cpu0.commitStats0.committedInstType::SimdFloatMisc            0                       # Class of committed instruction. (Count)
system.cpu0.commitStats0.committedInstType::SimdFloatMult            0                       # Class of committed instruction. (Count)
system.cpu0.commitStats0.committedInstType::SimdFloatMultAcc            0                       # Class of committed instruction. (Count)
system.cpu0.commitStats0.committedInstType::SimdFloatMatMultAcc            0                       # Class of committed instruction. (Count)
system.cpu0.commitStats0.committedInstType::SimdFloatSqrt            0                       # Class of committed instruction. (Count)
system.cpu0.commitStats0.committedInstType::SimdReduceAdd            0                       # Class of committed instruction. (Count)
system.cpu0.commitStats0.committedInstType::SimdReduceAlu            0                       # Class of committed instruction. (Count)
system.cpu0.commitStats0.committedInstType::SimdReduceCmp            0                       # Class of committed instruction. (Count)
system.cpu0.commitStats0.committedInstType::SimdFloatReduceAdd            0                       # Class of committed instruction. (Count)
system.cpu0.commitStats0.committedInstType::SimdFloatReduceCmp            0                       # Class of committed instruction. (Count)
system.cpu0.commitStats0.committedInstType::SimdAes            0                       # Class of committed instruction. (Count)
system.cpu0.commitStats0.committedInstType::SimdAesMix            0                       # Class of committed instruction. (Count)
system.cpu0.commitStats0.committedInstType::SimdSha1Hash            0                       # Class of committed instruction. (Count)
system.cpu0.commitStats0.committedInstType::SimdSha1Hash2            0                       # Class of committed instruction. (Count)
system.cpu0.commitStats0.committedInstType::SimdSha256Hash            0                       # Class of committed instruction. (Count)
system.cpu0.commitStats0.committedInstType::SimdSha256Hash2            0                       # Class of committed instruction. (Count)
system.cpu0.commitStats0.committedInstType::SimdShaSigma2            0                       # Class of committed instruction. (Count)
system.cpu0.commitStats0.committedInstType::SimdShaSigma3            0                       # Class of committed instruction. (Count)
system.cpu0.commitStats0.committedInstType::SimdPredAlu            0                       # Class of committed instruction. (Count)
system.cpu0.commitStats0.committedInstType::Matrix            0                       # Class of committed instruction. (Count)
system.cpu0.commitStats0.committedInstType::MatrixMov            0                       # Class of committed instruction. (Count)
system.cpu0.commitStats0.committedInstType::MatrixOP            0                       # Class of committed instruction. (Count)
system.cpu0.commitStats0.committedInstType::MemRead            0                       # Class of committed instruction. (Count)
system.cpu0.commitStats0.committedInstType::MemWrite            0                       # Class of committed instruction. (Count)
system.cpu0.commitStats0.committedInstType::FloatMemRead            0                       # Class of committed instruction. (Count)
system.cpu0.commitStats0.committedInstType::FloatMemWrite            0                       # Class of committed instruction. (Count)
system.cpu0.commitStats0.committedInstType::IprAccess            0                       # Class of committed instruction. (Count)
system.cpu0.commitStats0.committedInstType::InstPrefetch            0                       # Class of committed instruction. (Count)
system.cpu0.commitStats0.committedInstType::SimdUnitStrideLoad            0                       # Class of committed instruction. (Count)
system.cpu0.commitStats0.committedInstType::SimdUnitStrideStore            0                       # Class of committed instruction. (Count)
system.cpu0.commitStats0.committedInstType::SimdUnitStrideMaskLoad            0                       # Class of committed instruction. (Count)
system.cpu0.commitStats0.committedInstType::SimdUnitStrideMaskStore            0                       # Class of committed instruction. (Count)
system.cpu0.commitStats0.committedInstType::SimdStridedLoad            0                       # Class of committed instruction. (Count)
system.cpu0.commitStats0.committedInstType::SimdStridedStore            0                       # Class of committed instruction. (Count)
system.cpu0.commitStats0.committedInstType::SimdIndexedLoad            0                       # Class of committed instruction. (Count)
system.cpu0.commitStats0.committedInstType::SimdIndexedStore            0                       # Class of committed instruction. (Count)
system.cpu0.commitStats0.committedInstType::SimdWholeRegisterLoad            0                       # Class of committed instruction. (Count)
system.cpu0.commitStats0.committedInstType::SimdWholeRegisterStore            0                       # Class of committed instruction. (Count)
system.cpu0.commitStats0.committedInstType::SimdUnitStrideFaultOnlyFirstLoad            0                       # Class of committed instruction. (Count)
system.cpu0.commitStats0.committedInstType::SimdUnitStrideSegmentedLoad            0                       # Class of committed instruction. (Count)
system.cpu0.commitStats0.committedInstType::SimdUnitStrideSegmentedStore            0                       # Class of committed instruction. (Count)
system.cpu0.commitStats0.committedInstType::SimdExt            0                       # Class of committed instruction. (Count)
system.cpu0.commitStats0.committedInstType::SimdFloatExt            0                       # Class of committed instruction. (Count)
system.cpu0.commitStats0.committedInstType::SimdConfig            0                       # Class of committed instruction. (Count)
system.cpu0.commitStats0.committedInstType::total            0                       # Class of committed instruction. (Count)
system.cpu0.executeStats0.numInsts                  0                       # Number of executed instructions (Count)
system.cpu0.executeStats0.numNop                    0                       # Number of nop insts executed (Count)
system.cpu0.executeStats0.numBranches               0                       # Number of branches executed (Count)
system.cpu0.executeStats0.numLoadInsts              0                       # Number of load instructions executed (Count)
system.cpu0.executeStats0.numStoreInsts             0                       # Number of stores executed (Count)
system.cpu0.executeStats0.instRate                  0                       # Inst execution rate ((Count/Cycle))
system.cpu0.executeStats0.numFpRegWrites            0                       # Number of times the floating registers were written (Count)
system.cpu0.executeStats0.numMemRefs                0                       # Number of memory refs (Count)
system.cpu0.executeStats0.numVecAluAccesses            0                       # Number of vector alu accesses (Count)
system.cpu0.executeStats0.numDiscardedOps            0                       # Number of ops (including micro ops) which were discarded before commit (Count)
system.cpu0.fetchStats0.numInsts                    0                       # Number of instructions fetched (thread level) (Count)
system.cpu0.fetchStats0.numOps                      0                       # Number of ops (including micro ops) fetched (thread level) (Count)
system.cpu0.fetchStats0.fetchRate                   0                       # Number of inst fetches per cycle ((Count/Cycle))
system.cpu0.fetchStats0.branchRate                  0                       # Number of branch fetches per cycle (Ratio)
system.cpu0.fetchStats0.numFetchSuspends            0                       # Number of times Execute suspended instruction fetching (Count)
system.cpu0.interrupts.clk_domain.clock          8000                       # Clock period in ticks (Tick)
system.cpu0.mmu.dtb.rdAccesses                      0                       # TLB accesses on read requests (Count)
system.cpu0.mmu.dtb.wrAccesses                      0                       # TLB accesses on write requests (Count)
system.cpu0.mmu.dtb.rdMisses                        0                       # TLB misses on read requests (Count)
system.cpu0.mmu.dtb.wrMisses                        0                       # TLB misses on write requests (Count)
system.cpu0.mmu.dtb.walker.power_state.pwrStateResidencyTicks::UNDEFINED 12404104088500                       # Cumulative time (in ticks) in various power states (Tick)
system.cpu0.mmu.itb.rdAccesses                      0                       # TLB accesses on read requests (Count)
system.cpu0.mmu.itb.wrAccesses                      0                       # TLB accesses on write requests (Count)
system.cpu0.mmu.itb.rdMisses                        0                       # TLB misses on read requests (Count)
system.cpu0.mmu.itb.wrMisses                        0                       # TLB misses on write requests (Count)
system.cpu0.mmu.itb.walker.power_state.pwrStateResidencyTicks::UNDEFINED 12404104088500                       # Cumulative time (in ticks) in various power states (Tick)
system.cpu0.power_state.pwrStateResidencyTicks::ON 12404104088500                       # Cumulative time (in ticks) in various power states (Tick)
system.cpu0.thread_0.numInsts                       0                       # Number of Instructions committed (Count)
system.cpu0.thread_0.numOps                         0                       # Number of Ops committed (Count)
system.cpu0.thread_0.numMemRefs                     0                       # Number of Memory References (Count)
system.cpu1.allLatencyDist::bucket_size         10000                       # delay distribution for all (Unspecified)
system.cpu1.allLatencyDist::min_bucket              0                       # delay distribution for all (Unspecified)
system.cpu1.allLatencyDist::max_bucket        1599999                       # delay distribution for all (Unspecified)
system.cpu1.allLatencyDist::samples               482                       # delay distribution for all (Unspecified)
system.cpu1.allLatencyDist::mean         1608159.751037                       # delay distribution for all (Unspecified)
system.cpu1.allLatencyDist::stdev        1395531.296004                       # delay distribution for all (Unspecified)
system.cpu1.allLatencyDist::underflows              0      0.00%      0.00% # delay distribution for all (Unspecified)
system.cpu1.allLatencyDist               |           0      0.00%      0.00% |           0      0.00%      0.00% |           0      0.00%      0.00% |           0      0.00%      0.00% |           0      0.00%      0.00% |           0      0.00%      0.00% |           0      0.00%      0.00% |           0      0.00%      0.00% |           0      0.00%      0.00% |           0      0.00%      0.00% |          11      2.28%      2.28% |           3      0.62%      2.90% |           0      0.00%      2.90% |           0      0.00%      2.90% |           0      0.00%      2.90% |           0      0.00%      2.90% |          20      4.15%      7.05% |           0      0.00%      7.05% |           0      0.00%      7.05% |           0      0.00%      7.05% |           0      0.00%      7.05% |           0      0.00%      7.05% |           0      0.00%      7.05% |           0      0.00%      7.05% |           0      0.00%      7.05% |           0      0.00%      7.05% |          14      2.90%      9.96% |           7      1.45%     11.41% |           0      0.00%     11.41% |           2      0.41%     11.83% |           2      0.41%     12.24% |           0      0.00%     12.24% |           5      1.04%     13.28% |           7      1.45%     14.73% |           9      1.87%     16.60% |          11      2.28%     18.88% |           2      0.41%     19.29% |          13      2.70%     21.99% |          11      2.28%     24.27% |           9      1.87%     26.14% |           6      1.24%     27.39% |           1      0.21%     27.59% |          11      2.28%     29.88% |           3      0.62%     30.50% |           2      0.41%     30.91% |           0      0.00%     30.91% |           0      0.00%     30.91% |           0      0.00%     30.91% |           0      0.00%     30.91% |           0      0.00%     30.91% |           2      0.41%     31.33% |           2      0.41%     31.74% |           2      0.41%     32.16% |           5      1.04%     33.20% |           2      0.41%     33.61% |           4      0.83%     34.44% |           1      0.21%     34.65% |           1      0.21%     34.85% |           0      0.00%     34.85% |           0      0.00%     34.85% |           0      0.00%     34.85% |           0      0.00%     34.85% |           0      0.00%     34.85% |           0      0.00%     34.85% |           0      0.00%     34.85% |           0      0.00%     34.85% |           0      0.00%     34.85% |           0      0.00%     34.85% |           0      0.00%     34.85% |           0      0.00%     34.85% |           0      0.00%     34.85% |           0      0.00%     34.85% |           0      0.00%     34.85% |           0      0.00%     34.85% |           0      0.00%     34.85% |           0      0.00%     34.85% |           0      0.00%     34.85% |           3      0.62%     35.48% |           0      0.00%     35.48% |           0      0.00%     35.48% |           0      0.00%     35.48% |           0      0.00%     35.48% |           0      0.00%     35.48% |           0      0.00%     35.48% |           1      0.21%     35.68% |           0      0.00%     35.68% |           0      0.00%     35.68% |           0      0.00%     35.68% |           0      0.00%     35.68% |           0      0.00%     35.68% |           0      0.00%     35.68% |           0      0.00%     35.68% |           0      0.00%     35.68% |           3      0.62%     36.31% |           0      0.00%     36.31% |           0      0.00%     36.31% |           3      0.62%     36.93% |           0      0.00%     36.93% |           0      0.00%     36.93% |           0      0.00%     36.93% |           1      0.21%     37.14% |           0      0.00%     37.14% |           0      0.00%     37.14% |           4      0.83%     37.97% |           0      0.00%     37.97% |           0      0.00%     37.97% |           0      0.00%     37.97% |           0      0.00%     37.97% |           0      0.00%     37.97% |           0      0.00%     37.97% |           1      0.21%     38.17% |           0      0.00%     38.17% |           0      0.00%     38.17% |           0      0.00%     38.17% |           3      0.62%     38.80% |           0      0.00%     38.80% |           0      0.00%     38.80% |           0      0.00%     38.80% |           0      0.00%     38.80% |           0      0.00%     38.80% |           0      0.00%     38.80% |           4      0.83%     39.63% |           0      0.00%     39.63% |           0      0.00%     39.63% |           0      0.00%     39.63% |           0      0.00%     39.63% |           0      0.00%     39.63% |           1      0.21%     39.83% |           0      0.00%     39.83% |           0      0.00%     39.83% |           0      0.00%     39.83% |           0      0.00%     39.83% |           0      0.00%     39.83% |           0      0.00%     39.83% |           1      0.21%     40.04% |           5      1.04%     41.08% |           1      0.21%     41.29% |           0      0.00%     41.29% |           0      0.00%     41.29% |           0      0.00%     41.29% |          13      2.70%     43.98% |          24      4.98%     48.96% |           8      1.66%     50.62% |           4      0.83%     51.45% |           3      0.62%     52.07% |           0      0.00%     52.07% |           0      0.00%     52.07% |           8      1.66%     53.73% |           1      0.21%     53.94% |           0      0.00%     53.94% |           0      0.00%     53.94% |           1      0.21%     54.15% |           1      0.21%     54.36% |           2      0.41%     54.77% |           0      0.00%     54.77% |           0      0.00%     54.77% |           0      0.00%     54.77% |          11      2.28%     57.05% |          10      2.07%     59.13% |          11      2.28%     61.41% # delay distribution for all (Unspecified)
system.cpu1.allLatencyDist::overflows             186     38.59%    100.00% # delay distribution for all (Unspecified)
system.cpu1.allLatencyDist::min_value          103000                       # delay distribution for all (Unspecified)
system.cpu1.allLatencyDist::max_value         5800000                       # delay distribution for all (Unspecified)
system.cpu1.allLatencyDist::total                 482                       # delay distribution for all (Unspecified)
system.cpu1.loadLatencyDist::bucket_size        10000                       # delay distribution for loads (Unspecified)
system.cpu1.loadLatencyDist::min_bucket             0                       # delay distribution for loads (Unspecified)
system.cpu1.loadLatencyDist::max_bucket       1599999                       # delay distribution for loads (Unspecified)
system.cpu1.loadLatencyDist::samples              249                       # delay distribution for loads (Unspecified)
system.cpu1.loadLatencyDist::mean        2112180.722892                       # delay distribution for loads (Unspecified)
system.cpu1.loadLatencyDist::stdev       1685319.564877                       # delay distribution for loads (Unspecified)
system.cpu1.loadLatencyDist::underflows             0      0.00%      0.00% # delay distribution for loads (Unspecified)
system.cpu1.loadLatencyDist              |           0      0.00%      0.00% |           0      0.00%      0.00% |           0      0.00%      0.00% |           0      0.00%      0.00% |           0      0.00%      0.00% |           0      0.00%      0.00% |           0      0.00%      0.00% |           0      0.00%      0.00% |           0      0.00%      0.00% |           0      0.00%      0.00% |          11      4.42%      4.42% |           3      1.20%      5.62% |           0      0.00%      5.62% |           0      0.00%      5.62% |           0      0.00%      5.62% |           0      0.00%      5.62% |          20      8.03%     13.65% |           0      0.00%     13.65% |           0      0.00%     13.65% |           0      0.00%     13.65% |           0      0.00%     13.65% |           0      0.00%     13.65% |           0      0.00%     13.65% |           0      0.00%     13.65% |           0      0.00%     13.65% |           0      0.00%     13.65% |           0      0.00%     13.65% |           0      0.00%     13.65% |           0      0.00%     13.65% |           1      0.40%     14.06% |           0      0.00%     14.06% |           0      0.00%     14.06% |           3      1.20%     15.26% |           4      1.61%     16.87% |           3      1.20%     18.07% |           0      0.00%     18.07% |           0      0.00%     18.07% |           0      0.00%     18.07% |           2      0.80%     18.88% |           1      0.40%     19.28% |           0      0.00%     19.28% |           0      0.00%     19.28% |           1      0.40%     19.68% |           1      0.40%     20.08% |           0      0.00%     20.08% |           0      0.00%     20.08% |           0      0.00%     20.08% |           0      0.00%     20.08% |           0      0.00%     20.08% |           0      0.00%     20.08% |           2      0.80%     20.88% |           2      0.80%     21.69% |           2      0.80%     22.49% |           0      0.00%     22.49% |           0      0.00%     22.49% |           1      0.40%     22.89% |           1      0.40%     23.29% |           1      0.40%     23.69% |           0      0.00%     23.69% |           0      0.00%     23.69% |           0      0.00%     23.69% |           0      0.00%     23.69% |           0      0.00%     23.69% |           0      0.00%     23.69% |           0      0.00%     23.69% |           0      0.00%     23.69% |           0      0.00%     23.69% |           0      0.00%     23.69% |           0      0.00%     23.69% |           0      0.00%     23.69% |           0      0.00%     23.69% |           0      0.00%     23.69% |           0      0.00%     23.69% |           0      0.00%     23.69% |           0      0.00%     23.69% |           0      0.00%     23.69% |           0      0.00%     23.69% |           3      1.20%     24.90% |           0      0.00%     24.90% |           0      0.00%     24.90% |           0      0.00%     24.90% |           0      0.00%     24.90% |           0      0.00%     24.90% |           0      0.00%     24.90% |           1      0.40%     25.30% |           0      0.00%     25.30% |           0      0.00%     25.30% |           0      0.00%     25.30% |           0      0.00%     25.30% |           0      0.00%     25.30% |           0      0.00%     25.30% |           0      0.00%     25.30% |           0      0.00%     25.30% |           3      1.20%     26.51% |           0      0.00%     26.51% |           0      0.00%     26.51% |           3      1.20%     27.71% |           0      0.00%     27.71% |           0      0.00%     27.71% |           0      0.00%     27.71% |           1      0.40%     28.11% |           0      0.00%     28.11% |           0      0.00%     28.11% |           4      1.61%     29.72% |           0      0.00%     29.72% |           0      0.00%     29.72% |           0      0.00%     29.72% |           0      0.00%     29.72% |           0      0.00%     29.72% |           0      0.00%     29.72% |           1      0.40%     30.12% |           0      0.00%     30.12% |           0      0.00%     30.12% |           0      0.00%     30.12% |           3      1.20%     31.33% |           0      0.00%     31.33% |           0      0.00%     31.33% |           0      0.00%     31.33% |           0      0.00%     31.33% |           0      0.00%     31.33% |           0      0.00%     31.33% |           4      1.61%     32.93% |           0      0.00%     32.93% |           0      0.00%     32.93% |           0      0.00%     32.93% |           0      0.00%     32.93% |           0      0.00%     32.93% |           1      0.40%     33.33% |           0      0.00%     33.33% |           0      0.00%     33.33% |           0      0.00%     33.33% |           0      0.00%     33.33% |           0      0.00%     33.33% |           0      0.00%     33.33% |           1      0.40%     33.73% |           5      2.01%     35.74% |           1      0.40%     36.14% |           0      0.00%     36.14% |           0      0.00%     36.14% |           0      0.00%     36.14% |          13      5.22%     41.37% |          24      9.64%     51.00% |           8      3.21%     54.22% |           4      1.61%     55.82% |           3      1.20%     57.03% |           0      0.00%     57.03% |           0      0.00%     57.03% |           8      3.21%     60.24% |           1      0.40%     60.64% |           0      0.00%     60.64% |           0      0.00%     60.64% |           1      0.40%     61.04% |           0      0.00%     61.04% |           0      0.00%     61.04% |           0      0.00%     61.04% |           0      0.00%     61.04% |           0      0.00%     61.04% |           0      0.00%     61.04% |           0      0.00%     61.04% |           0      0.00%     61.04% # delay distribution for loads (Unspecified)
system.cpu1.loadLatencyDist::overflows             97     38.96%    100.00% # delay distribution for loads (Unspecified)
system.cpu1.loadLatencyDist::min_value         103000                       # delay distribution for loads (Unspecified)
system.cpu1.loadLatencyDist::max_value        5800000                       # delay distribution for loads (Unspecified)
system.cpu1.loadLatencyDist::total                249                       # delay distribution for loads (Unspecified)
system.cpu1.storeLatencyDist::bucket_size        10000                       # delay distribution for stores (Unspecified)
system.cpu1.storeLatencyDist::min_bucket            0                       # delay distribution for stores (Unspecified)
system.cpu1.storeLatencyDist::max_bucket      1599999                       # delay distribution for stores (Unspecified)
system.cpu1.storeLatencyDist::samples             233                       # delay distribution for stores (Unspecified)
system.cpu1.storeLatencyDist::mean       1069527.896996                       # delay distribution for stores (Unspecified)
system.cpu1.storeLatencyDist::stdev      661444.494468                       # delay distribution for stores (Unspecified)
system.cpu1.storeLatencyDist::underflows            0      0.00%      0.00% # delay distribution for stores (Unspecified)
system.cpu1.storeLatencyDist             |           0      0.00%      0.00% |           0      0.00%      0.00% |           0      0.00%      0.00% |           0      0.00%      0.00% |           0      0.00%      0.00% |           0      0.00%      0.00% |           0      0.00%      0.00% |           0      0.00%      0.00% |           0      0.00%      0.00% |           0      0.00%      0.00% |           0      0.00%      0.00% |           0      0.00%      0.00% |           0      0.00%      0.00% |           0      0.00%      0.00% |           0      0.00%      0.00% |           0      0.00%      0.00% |           0      0.00%      0.00% |           0      0.00%      0.00% |           0      0.00%      0.00% |           0      0.00%      0.00% |           0      0.00%      0.00% |           0      0.00%      0.00% |           0      0.00%      0.00% |           0      0.00%      0.00% |           0      0.00%      0.00% |           0      0.00%      0.00% |          14      6.01%      6.01% |           7      3.00%      9.01% |           0      0.00%      9.01% |           1      0.43%      9.44% |           2      0.86%     10.30% |           0      0.00%     10.30% |           2      0.86%     11.16% |           3      1.29%     12.45% |           6      2.58%     15.02% |          11      4.72%     19.74% |           2      0.86%     20.60% |          13      5.58%     26.18% |           9      3.86%     30.04% |           8      3.43%     33.48% |           6      2.58%     36.05% |           1      0.43%     36.48% |          10      4.29%     40.77% |           2      0.86%     41.63% |           2      0.86%     42.49% |           0      0.00%     42.49% |           0      0.00%     42.49% |           0      0.00%     42.49% |           0      0.00%     42.49% |           0      0.00%     42.49% |           0      0.00%     42.49% |           0      0.00%     42.49% |           0      0.00%     42.49% |           5      2.15%     44.64% |           2      0.86%     45.49% |           3      1.29%     46.78% |           0      0.00%     46.78% |           0      0.00%     46.78% |           0      0.00%     46.78% |           0      0.00%     46.78% |           0      0.00%     46.78% |           0      0.00%     46.78% |           0      0.00%     46.78% |           0      0.00%     46.78% |           0      0.00%     46.78% |           0      0.00%     46.78% |           0      0.00%     46.78% |           0      0.00%     46.78% |           0      0.00%     46.78% |           0      0.00%     46.78% |           0      0.00%     46.78% |           0      0.00%     46.78% |           0      0.00%     46.78% |           0      0.00%     46.78% |           0      0.00%     46.78% |           0      0.00%     46.78% |           0      0.00%     46.78% |           0      0.00%     46.78% |           0      0.00%     46.78% |           0      0.00%     46.78% |           0      0.00%     46.78% |           0      0.00%     46.78% |           0      0.00%     46.78% |           0      0.00%     46.78% |           0      0.00%     46.78% |           0      0.00%     46.78% |           0      0.00%     46.78% |           0      0.00%     46.78% |           0      0.00%     46.78% |           0      0.00%     46.78% |           0      0.00%     46.78% |           0      0.00%     46.78% |           0      0.00%     46.78% |           0      0.00%     46.78% |           0      0.00%     46.78% |           0      0.00%     46.78% |           0      0.00%     46.78% |           0      0.00%     46.78% |           0      0.00%     46.78% |           0      0.00%     46.78% |           0      0.00%     46.78% |           0      0.00%     46.78% |           0      0.00%     46.78% |           0      0.00%     46.78% |           0      0.00%     46.78% |           0      0.00%     46.78% |           0      0.00%     46.78% |           0      0.00%     46.78% |           0      0.00%     46.78% |           0      0.00%     46.78% |           0      0.00%     46.78% |           0      0.00%     46.78% |           0      0.00%     46.78% |           0      0.00%     46.78% |           0      0.00%     46.78% |           0      0.00%     46.78% |           0      0.00%     46.78% |           0      0.00%     46.78% |           0      0.00%     46.78% |           0      0.00%     46.78% |           0      0.00%     46.78% |           0      0.00%     46.78% |           0      0.00%     46.78% |           0      0.00%     46.78% |           0      0.00%     46.78% |           0      0.00%     46.78% |           0      0.00%     46.78% |           0      0.00%     46.78% |           0      0.00%     46.78% |           0      0.00%     46.78% |           0      0.00%     46.78% |           0      0.00%     46.78% |           0      0.00%     46.78% |           0      0.00%     46.78% |           0      0.00%     46.78% |           0      0.00%     46.78% |           0      0.00%     46.78% |           0      0.00%     46.78% |           0      0.00%     46.78% |           0      0.00%     46.78% |           0      0.00%     46.78% |           0      0.00%     46.78% |           0      0.00%     46.78% |           0      0.00%     46.78% |           0      0.00%     46.78% |           0      0.00%     46.78% |           0      0.00%     46.78% |           0      0.00%     46.78% |           0      0.00%     46.78% |           0      0.00%     46.78% |           0      0.00%     46.78% |           0      0.00%     46.78% |           1      0.43%     47.21% |           2      0.86%     48.07% |           0      0.00%     48.07% |           0      0.00%     48.07% |           0      0.00%     48.07% |          11      4.72%     52.79% |          10      4.29%     57.08% |          11      4.72%     61.80% # delay distribution for stores (Unspecified)
system.cpu1.storeLatencyDist::overflows            89     38.20%    100.00% # delay distribution for stores (Unspecified)
system.cpu1.storeLatencyDist::min_value        262000                       # delay distribution for stores (Unspecified)
system.cpu1.storeLatencyDist::max_value       1937000                       # delay distribution for stores (Unspecified)
system.cpu1.storeLatencyDist::total               233                       # delay distribution for stores (Unspecified)
system.cpu1.initToCoalesceLatency::bucket_size        10000                       # Ticks from vmem inst initiateAcc to coalescer issue (Unspecified)
system.cpu1.initToCoalesceLatency::min_bucket            0                       # Ticks from vmem inst initiateAcc to coalescer issue (Unspecified)
system.cpu1.initToCoalesceLatency::max_bucket      1599999                       # Ticks from vmem inst initiateAcc to coalescer issue (Unspecified)
system.cpu1.initToCoalesceLatency::samples            0                       # Ticks from vmem inst initiateAcc to coalescer issue (Unspecified)
system.cpu1.initToCoalesceLatency::mean           nan                       # Ticks from vmem inst initiateAcc to coalescer issue (Unspecified)
system.cpu1.initToCoalesceLatency::stdev          nan                       # Ticks from vmem inst initiateAcc to coalescer issue (Unspecified)
system.cpu1.initToCoalesceLatency::underflows            0                       # Ticks from vmem inst initiateAcc to coalescer issue (Unspecified)
system.cpu1.initToCoalesceLatency        |           0                       |           0                       |           0                       |           0                       |           0                       |           0                       |           0                       |           0                       |           0                       |           0                       |           0                       |           0                       |           0                       |           0                       |           0                       |           0                       |           0                       |           0                       |           0                       |           0                       |           0                       |           0                       |           0                       |           0                       |           0                       |           0                       |           0                       |           0                       |           0                       |           0                       |           0                       |           0                       |           0                       |           0                       |           0                       |           0                       |           0                       |           0                       |           0                       |           0                       |           0                       |           0                       |           0                       |           0                       |           0                       |           0                       |           0                       |           0                       |           0                       |           0                       |           0                       |           0                       |           0                       |           0                       |           0                       |           0                       |           0                       |           0                       |           0                       |           0                       |           0                       |           0                       |           0                       |           0                       |           0                       |           0                       |           0                       |           0                       |           0                       |           0                       |           0                       |           0                       |           0                       |           0                       |           0                       |           0                       |           0                       |           0                       |           0                       |           0                       |           0                       |           0                       |           0                       |           0                       |           0                       |           0                       |           0                       |           0                       |           0                       |           0                       |           0                       |           0                       |           0                       |           0                       |           0                       |           0                       |           0                       |           0                       |           0                       |           0                       |           0                       |           0                       |           0                       |           0                       |           0                       |           0                       |           0                       |           0                       |           0                       |           0                       |           0                       |           0                       |           0                       |           0                       |           0                       |           0                       |           0                       |           0                       |           0                       |           0                       |           0                       |           0                       |           0                       |           0                       |           0                       |           0                       |           0                       |           0                       |           0                       |           0                       |           0                       |           0                       |           0                       |           0                       |           0                       |           0                       |           0                       |           0                       |           0                       |           0                       |           0                       |           0                       |           0                       |           0                       |           0                       |           0                       |           0                       |           0                       |           0                       |           0                       |           0                       |           0                       |           0                       |           0                       |           0                       |           0                       |           0                       |           0                       |           0                       |           0                       # Ticks from vmem inst initiateAcc to coalescer issue (Unspecified)
system.cpu1.initToCoalesceLatency::overflows            0                       # Ticks from vmem inst initiateAcc to coalescer issue (Unspecified)
system.cpu1.initToCoalesceLatency::min_value            0                       # Ticks from vmem inst initiateAcc to coalescer issue (Unspecified)
system.cpu1.initToCoalesceLatency::max_value            0                       # Ticks from vmem inst initiateAcc to coalescer issue (Unspecified)
system.cpu1.initToCoalesceLatency::total            0                       # Ticks from vmem inst initiateAcc to coalescer issue (Unspecified)
system.cpu1.rubyNetworkLatency::bucket_size        10000                       # Ticks from coalescer issue to coalescer hit callback (Unspecified)
system.cpu1.rubyNetworkLatency::min_bucket            0                       # Ticks from coalescer issue to coalescer hit callback (Unspecified)
system.cpu1.rubyNetworkLatency::max_bucket      1599999                       # Ticks from coalescer issue to coalescer hit callback (Unspecified)
system.cpu1.rubyNetworkLatency::samples             0                       # Ticks from coalescer issue to coalescer hit callback (Unspecified)
system.cpu1.rubyNetworkLatency::mean              nan                       # Ticks from coalescer issue to coalescer hit callback (Unspecified)
system.cpu1.rubyNetworkLatency::stdev             nan                       # Ticks from coalescer issue to coalescer hit callback (Unspecified)
system.cpu1.rubyNetworkLatency::underflows            0                       # Ticks from coalescer issue to coalescer hit callback (Unspecified)
system.cpu1.rubyNetworkLatency           |           0                       |           0                       |           0                       |           0                       |           0                       |           0                       |           0                       |           0                       |           0                       |           0                       |           0                       |           0                       |           0                       |           0                       |           0                       |           0                       |           0                       |           0                       |           0                       |           0                       |           0                       |           0                       |           0                       |           0                       |           0                       |           0                       |           0                       |           0                       |           0                       |           0                       |           0                       |           0                       |           0                       |           0                       |           0                       |           0                       |           0                       |           0                       |           0                       |           0                       |           0                       |           0                       |           0                       |           0                       |           0                       |           0                       |           0                       |           0                       |           0                       |           0                       |           0                       |           0                       |           0                       |           0                       |           0                       |           0                       |           0                       |           0                       |           0                       |           0                       |           0                       |           0                       |           0                       |           0                       |           0                       |           0                       |           0                       |           0                       |           0                       |           0                       |           0                       |           0                       |           0                       |           0                       |           0                       |           0                       |           0                       |           0                       |           0                       |           0                       |           0                       |           0                       |           0                       |           0                       |           0                       |           0                       |           0                       |           0                       |           0                       |           0                       |           0                       |           0                       |           0                       |           0                       |           0                       |           0                       |           0                       |           0                       |           0                       |           0                       |           0                       |           0                       |           0                       |           0                       |           0                       |           0                       |           0                       |           0                       |           0                       |           0                       |           0                       |           0                       |           0                       |           0                       |           0                       |           0                       |           0                       |           0                       |           0                       |           0                       |           0                       |           0                       |           0                       |           0                       |           0                       |           0                       |           0                       |           0                       |           0                       |           0                       |           0                       |           0                       |           0                       |           0                       |           0                       |           0                       |           0                       |           0                       |           0                       |           0                       |           0                       |           0                       |           0                       |           0                       |           0                       |           0                       |           0                       |           0                       |           0                       |           0                       |           0                       |           0                       |           0                       |           0                       |           0                       |           0                       |           0                       |           0                       |           0                       |           0                       # Ticks from coalescer issue to coalescer hit callback (Unspecified)
system.cpu1.rubyNetworkLatency::overflows            0                       # Ticks from coalescer issue to coalescer hit callback (Unspecified)
system.cpu1.rubyNetworkLatency::min_value            0                       # Ticks from coalescer issue to coalescer hit callback (Unspecified)
system.cpu1.rubyNetworkLatency::max_value            0                       # Ticks from coalescer issue to coalescer hit callback (Unspecified)
system.cpu1.rubyNetworkLatency::total               0                       # Ticks from coalescer issue to coalescer hit callback (Unspecified)
system.cpu1.gmEnqueueLatency::bucket_size        10000                       # Ticks from coalescer hit callback to GM pipe enqueue (Unspecified)
system.cpu1.gmEnqueueLatency::min_bucket            0                       # Ticks from coalescer hit callback to GM pipe enqueue (Unspecified)
system.cpu1.gmEnqueueLatency::max_bucket      1599999                       # Ticks from coalescer hit callback to GM pipe enqueue (Unspecified)
system.cpu1.gmEnqueueLatency::samples               0                       # Ticks from coalescer hit callback to GM pipe enqueue (Unspecified)
system.cpu1.gmEnqueueLatency::mean                nan                       # Ticks from coalescer hit callback to GM pipe enqueue (Unspecified)
system.cpu1.gmEnqueueLatency::stdev               nan                       # Ticks from coalescer hit callback to GM pipe enqueue (Unspecified)
system.cpu1.gmEnqueueLatency::underflows            0                       # Ticks from coalescer hit callback to GM pipe enqueue (Unspecified)
system.cpu1.gmEnqueueLatency             |           0                       |           0                       |           0                       |           0                       |           0                       |           0                       |           0                       |           0                       |           0                       |           0                       |           0                       |           0                       |           0                       |           0                       |           0                       |           0                       |           0                       |           0                       |           0                       |           0                       |           0                       |           0                       |           0                       |           0                       |           0                       |           0                       |           0                       |           0                       |           0                       |           0                       |           0                       |           0                       |           0                       |           0                       |           0                       |           0                       |           0                       |           0                       |           0                       |           0                       |           0                       |           0                       |           0                       |           0                       |           0                       |           0                       |           0                       |           0                       |           0                       |           0                       |           0                       |           0                       |           0                       |           0                       |           0                       |           0                       |           0                       |           0                       |           0                       |           0                       |           0                       |           0                       |           0                       |           0                       |           0                       |           0                       |           0                       |           0                       |           0                       |           0                       |           0                       |           0                       |           0                       |           0                       |           0                       |           0                       |           0                       |           0                       |           0                       |           0                       |           0                       |           0                       |           0                       |           0                       |           0                       |           0                       |           0                       |           0                       |           0                       |           0                       |           0                       |           0                       |           0                       |           0                       |           0                       |           0                       |           0                       |           0                       |           0                       |           0                       |           0                       |           0                       |           0                       |           0                       |           0                       |           0                       |           0                       |           0                       |           0                       |           0                       |           0                       |           0                       |           0                       |           0                       |           0                       |           0                       |           0                       |           0                       |           0                       |           0                       |           0                       |           0                       |           0                       |           0                       |           0                       |           0                       |           0                       |           0                       |           0                       |           0                       |           0                       |           0                       |           0                       |           0                       |           0                       |           0                       |           0                       |           0                       |           0                       |           0                       |           0                       |           0                       |           0                       |           0                       |           0                       |           0                       |           0                       |           0                       |           0                       |           0                       |           0                       |           0                       |           0                       |           0                       |           0                       |           0                       |           0                       |           0                       |           0                       |           0                       # Ticks from coalescer hit callback to GM pipe enqueue (Unspecified)
system.cpu1.gmEnqueueLatency::overflows             0                       # Ticks from coalescer hit callback to GM pipe enqueue (Unspecified)
system.cpu1.gmEnqueueLatency::min_value             0                       # Ticks from coalescer hit callback to GM pipe enqueue (Unspecified)
system.cpu1.gmEnqueueLatency::max_value             0                       # Ticks from coalescer hit callback to GM pipe enqueue (Unspecified)
system.cpu1.gmEnqueueLatency::total                 0                       # Ticks from coalescer hit callback to GM pipe enqueue (Unspecified)
system.cpu1.gmToCompleteLatency::bucket_size        10000                       # Ticks queued in GM pipes ordered response buffer (Unspecified)
system.cpu1.gmToCompleteLatency::min_bucket            0                       # Ticks queued in GM pipes ordered response buffer (Unspecified)
system.cpu1.gmToCompleteLatency::max_bucket      1599999                       # Ticks queued in GM pipes ordered response buffer (Unspecified)
system.cpu1.gmToCompleteLatency::samples            0                       # Ticks queued in GM pipes ordered response buffer (Unspecified)
system.cpu1.gmToCompleteLatency::mean             nan                       # Ticks queued in GM pipes ordered response buffer (Unspecified)
system.cpu1.gmToCompleteLatency::stdev            nan                       # Ticks queued in GM pipes ordered response buffer (Unspecified)
system.cpu1.gmToCompleteLatency::underflows            0                       # Ticks queued in GM pipes ordered response buffer (Unspecified)
system.cpu1.gmToCompleteLatency          |           0                       |           0                       |           0                       |           0                       |           0                       |           0                       |           0                       |           0                       |           0                       |           0                       |           0                       |           0                       |           0                       |           0                       |           0                       |           0                       |           0                       |           0                       |           0                       |           0                       |           0                       |           0                       |           0                       |           0                       |           0                       |           0                       |           0                       |           0                       |           0                       |           0                       |           0                       |           0                       |           0                       |           0                       |           0                       |           0                       |           0                       |           0                       |           0                       |           0                       |           0                       |           0                       |           0                       |           0                       |           0                       |           0                       |           0                       |           0                       |           0                       |           0                       |           0                       |           0                       |           0                       |           0                       |           0                       |           0                       |           0                       |           0                       |           0                       |           0                       |           0                       |           0                       |           0                       |           0                       |           0                       |           0                       |           0                       |           0                       |           0                       |           0                       |           0                       |           0                       |           0                       |           0                       |           0                       |           0                       |           0                       |           0                       |           0                       |           0                       |           0                       |           0                       |           0                       |           0                       |           0                       |           0                       |           0                       |           0                       |           0                       |           0                       |           0                       |           0                       |           0                       |           0                       |           0                       |           0                       |           0                       |           0                       |           0                       |           0                       |           0                       |           0                       |           0                       |           0                       |           0                       |           0                       |           0                       |           0                       |           0                       |           0                       |           0                       |           0                       |           0                       |           0                       |           0                       |           0                       |           0                       |           0                       |           0                       |           0                       |           0                       |           0                       |           0                       |           0                       |           0                       |           0                       |           0                       |           0                       |           0                       |           0                       |           0                       |           0                       |           0                       |           0                       |           0                       |           0                       |           0                       |           0                       |           0                       |           0                       |           0                       |           0                       |           0                       |           0                       |           0                       |           0                       |           0                       |           0                       |           0                       |           0                       |           0                       |           0                       |           0                       |           0                       |           0                       |           0                       |           0                       |           0                       |           0                       |           0                       # Ticks queued in GM pipes ordered response buffer (Unspecified)
system.cpu1.gmToCompleteLatency::overflows            0                       # Ticks queued in GM pipes ordered response buffer (Unspecified)
system.cpu1.gmToCompleteLatency::min_value            0                       # Ticks queued in GM pipes ordered response buffer (Unspecified)
system.cpu1.gmToCompleteLatency::max_value            0                       # Ticks queued in GM pipes ordered response buffer (Unspecified)
system.cpu1.gmToCompleteLatency::total              0                       # Ticks queued in GM pipes ordered response buffer (Unspecified)
system.cpu1.coalsrLineAddresses::bucket_size            1                       # Number of cache lines for coalesced request (Unspecified)
system.cpu1.coalsrLineAddresses::min_bucket            0                       # Number of cache lines for coalesced request (Unspecified)
system.cpu1.coalsrLineAddresses::max_bucket           20                       # Number of cache lines for coalesced request (Unspecified)
system.cpu1.coalsrLineAddresses::samples          482                       # Number of cache lines for coalesced request (Unspecified)
system.cpu1.coalsrLineAddresses::mean               0                       # Number of cache lines for coalesced request (Unspecified)
system.cpu1.coalsrLineAddresses::stdev              0                       # Number of cache lines for coalesced request (Unspecified)
system.cpu1.coalsrLineAddresses::underflows            0      0.00%      0.00% # Number of cache lines for coalesced request (Unspecified)
system.cpu1.coalsrLineAddresses          |         482    100.00%    100.00% |           0      0.00%    100.00% |           0      0.00%    100.00% |           0      0.00%    100.00% |           0      0.00%    100.00% |           0      0.00%    100.00% |           0      0.00%    100.00% |           0      0.00%    100.00% |           0      0.00%    100.00% |           0      0.00%    100.00% |           0      0.00%    100.00% |           0      0.00%    100.00% |           0      0.00%    100.00% |           0      0.00%    100.00% |           0      0.00%    100.00% |           0      0.00%    100.00% |           0      0.00%    100.00% |           0      0.00%    100.00% |           0      0.00%    100.00% |           0      0.00%    100.00% |           0      0.00%    100.00% # Number of cache lines for coalesced request (Unspecified)
system.cpu1.coalsrLineAddresses::overflows            0      0.00%    100.00% # Number of cache lines for coalesced request (Unspecified)
system.cpu1.coalsrLineAddresses::min_value            0                       # Number of cache lines for coalesced request (Unspecified)
system.cpu1.coalsrLineAddresses::max_value            0                       # Number of cache lines for coalesced request (Unspecified)
system.cpu1.coalsrLineAddresses::total            482                       # Number of cache lines for coalesced request (Unspecified)
system.cpu1.shaderActiveTicks                35701997                       # Total ticks that any CU attached to this shader is active (Unspecified)
system.cpu1.vectorInstSrcOperand::0             23291                       # vector instruction source operand distribution (Unspecified)
system.cpu1.vectorInstSrcOperand::1             21947                       # vector instruction source operand distribution (Unspecified)
system.cpu1.vectorInstSrcOperand::2               237                       # vector instruction source operand distribution (Unspecified)
system.cpu1.vectorInstSrcOperand::3                15                       # vector instruction source operand distribution (Unspecified)
system.cpu1.vectorInstDstOperand::0             20157                       # vector instruction destination operand distribution (Unspecified)
system.cpu1.vectorInstDstOperand::1             25333                       # vector instruction destination operand distribution (Unspecified)
system.cpu1.vectorInstDstOperand::2                 0                       # vector instruction destination operand distribution (Unspecified)
system.cpu1.vectorInstDstOperand::3                 0                       # vector instruction destination operand distribution (Unspecified)
system.cpu1.CUs0.vALUInsts                       7693                       # Number of vector ALU insts issued. (Unspecified)
system.cpu1.CUs0.vALUInstsPerWF             32.054167                       # The avg. number of vector ALU insts issued per-wavefront. (Unspecified)
system.cpu1.CUs0.sALUInsts                       1247                       # Number of scalar ALU insts issued. (Unspecified)
system.cpu1.CUs0.sALUInstsPerWF              5.195833                       # The avg. number of scalar ALU insts issued per-wavefront. (Unspecified)
system.cpu1.CUs0.instCyclesVALU                  7693                       # Number of cycles needed to execute VALU insts. (Unspecified)
system.cpu1.CUs0.instCyclesSALU                  1247                       # Number of cycles needed to execute SALU insts. (Unspecified)
system.cpu1.CUs0.threadCyclesVALU              492352                       # Number of thread cycles used to execute vector ALU ops. Similar to instCyclesVALU but multiplied by the number of active threads. (Unspecified)
system.cpu1.CUs0.vALUUtilization                  100                       # Percentage of active vector ALU threads in a wave. (Unspecified)
system.cpu1.CUs0.ldsNoFlatInsts                     0                       # Number of LDS insts issued, not including FLAT accesses that resolve to LDS. (Unspecified)
system.cpu1.CUs0.ldsNoFlatInstsPerWF                0                       # The avg. number of LDS insts (not including FLAT accesses that resolve to LDS) per-wavefront. (Unspecified)
system.cpu1.CUs0.flatVMemInsts                    152                       # The number of FLAT insts that resolve to vmem issued. (Unspecified)
system.cpu1.CUs0.flatVMemInstsPerWF          0.633333                       # The average number of FLAT insts that resolve to vmem issued per-wavefront. (Unspecified)
system.cpu1.CUs0.flatLDSInsts                       0                       # The number of FLAT insts that resolve to LDS issued. (Unspecified)
system.cpu1.CUs0.flatLDSInstsPerWF                  0                       # The average number of FLAT insts that resolve to LDS issued per-wavefront. (Unspecified)
system.cpu1.CUs0.vectorMemWrites                    0                       # Number of vector mem write insts (excluding FLAT insts). (Unspecified)
system.cpu1.CUs0.vectorMemWritesPerWF               0                       # The average number of vector mem write insts (excluding FLAT insts) per-wavefront. (Unspecified)
system.cpu1.CUs0.vectorMemReads                     0                       # Number of vector mem read insts (excluding FLAT insts). (Unspecified)
system.cpu1.CUs0.vectorMemReadsPerWF                0                       # The avg. number of vector mem read insts (excluding FLAT insts) per-wavefront. (Unspecified)
system.cpu1.CUs0.scalarMemWrites                    0                       # Number of scalar mem write insts. (Unspecified)
system.cpu1.CUs0.scalarMemWritesPerWF               0                       # The average number of scalar mem write insts per-wavefront. (Unspecified)
system.cpu1.CUs0.scalarMemReads                  1436                       # Number of scalar mem read insts. (Unspecified)
system.cpu1.CUs0.scalarMemReadsPerWF         5.983333                       # The average number of scalar mem read insts per-wavefront. (Unspecified)
system.cpu1.CUs0.vectorMemReadsPerKiloInst            0                       # Number of vector mem reads per kilo-instruction (Unspecified)
system.cpu1.CUs0.vectorMemWritesPerKiloInst            0                       # Number of vector mem writes per kilo-instruction (Unspecified)
system.cpu1.CUs0.vectorMemInstsPerKiloInst            0                       # Number of vector mem insts per kilo-instruction (Unspecified)
system.cpu1.CUs0.scalarMemReadsPerKiloInst   118.296400                       # Number of scalar mem reads per kilo-instruction (Unspecified)
system.cpu1.CUs0.scalarMemWritesPerKiloInst            0                       # Number of scalar mem writes per kilo-instruction (Unspecified)
system.cpu1.CUs0.scalarMemInstsPerKiloInst   118.296400                       # Number of scalar mem insts per kilo-instruction (Unspecified)
system.cpu1.CUs0.instCyclesVMemPerSimd::0          103                       # Number of cycles to send address, command, data from VRF to vector memory unit, per SIMD (Unspecified)
system.cpu1.CUs0.instCyclesVMemPerSimd::1           39                       # Number of cycles to send address, command, data from VRF to vector memory unit, per SIMD (Unspecified)
system.cpu1.CUs0.instCyclesVMemPerSimd::2           39                       # Number of cycles to send address, command, data from VRF to vector memory unit, per SIMD (Unspecified)
system.cpu1.CUs0.instCyclesVMemPerSimd::3           39                       # Number of cycles to send address, command, data from VRF to vector memory unit, per SIMD (Unspecified)
system.cpu1.CUs0.instCyclesScMemPerSimd::0          374                       # Number of cycles to send address, command, data from SRF to scalar memory unit, per SIMD (Unspecified)
system.cpu1.CUs0.instCyclesScMemPerSimd::1          360                       # Number of cycles to send address, command, data from SRF to scalar memory unit, per SIMD (Unspecified)
system.cpu1.CUs0.instCyclesScMemPerSimd::2          354                       # Number of cycles to send address, command, data from SRF to scalar memory unit, per SIMD (Unspecified)
system.cpu1.CUs0.instCyclesScMemPerSimd::3          348                       # Number of cycles to send address, command, data from SRF to scalar memory unit, per SIMD (Unspecified)
system.cpu1.CUs0.instCyclesLdsPerSimd::0            0                       # Number of cycles to send address, command, data from VRF to LDS unit, per SIMD (Unspecified)
system.cpu1.CUs0.instCyclesLdsPerSimd::1            0                       # Number of cycles to send address, command, data from VRF to LDS unit, per SIMD (Unspecified)
system.cpu1.CUs0.instCyclesLdsPerSimd::2            0                       # Number of cycles to send address, command, data from VRF to LDS unit, per SIMD (Unspecified)
system.cpu1.CUs0.instCyclesLdsPerSimd::3            0                       # Number of cycles to send address, command, data from VRF to LDS unit, per SIMD (Unspecified)
system.cpu1.CUs0.globalReads                       84                       # Number of reads to the global segment (Unspecified)
system.cpu1.CUs0.globalWrites                      68                       # Number of writes to the global segment (Unspecified)
system.cpu1.CUs0.globalMemInsts                   152                       # Number of memory instructions sent to the global segment (Unspecified)
[...]
system.Shader.cacheBlockRoundTrip8::overflows            0                       # Coalsr-to-coalsr time for the Nth cache block in an inst (Unspecified)
system.Shader.cacheBlockRoundTrip8::min_value            0                       # Coalsr-to-coalsr time for the Nth cache block in an inst (Unspecified)
system.Shader.cacheBlockRoundTrip8::max_value            0                       # Coalsr-to-coalsr time for the Nth cache block in an inst (Unspecified)
system.Shader.cacheBlockRoundTrip8::total            0                       # Coalsr-to-coalsr time for the Nth cache block in an inst (Unspecified)
system.Shader.cacheBlockRoundTrip9::bucket_size        10000                       # Coalsr-to-coalsr time for the Nth cache block in an inst (Unspecified)
system.Shader.cacheBlockRoundTrip9::min_bucket            0                       # Coalsr-to-coalsr time for the Nth cache block in an inst (Unspecified)
system.Shader.cacheBlockRoundTrip9::max_bucket      1599999                       # Coalsr-to-coalsr time for the Nth cache block in an inst (Unspecified)
system.Shader.cacheBlockRoundTrip9::samples            0                       # Coalsr-to-coalsr time for the Nth cache block in an inst (Unspecified)
system.Shader.cacheBlockRoundTrip9::mean          nan                       # Coalsr-to-coalsr time for the Nth cache block in an inst (Unspecified)
system.Shader.cacheBlockRoundTrip9::stdev          nan                       # Coalsr-to-coalsr time for the Nth cache block in an inst (Unspecified)
system.Shader.cacheBlockRoundTrip9::underflows            0                       # Coalsr-to-coalsr time for the Nth cache block in an inst (Unspecified)
system.Shader.cacheBlockRoundTrip9       |           0                       |           0                       |           0                       |           0                       |           0                       |           0                       |           0                       |           0                       |           0                       |           0                       |           0                       |           0                       |           0                       |           0                       |           0                       |           0                       |           0                       |           0                       |           0                       |           0                       |           0                       |           0                       |           0                       |           0                       |           0                       |           0                       |           0                       |           0                       |           0                       |           0                       |           0                       |           0                       |           0                       |           0                       |           0                       |           0                       |           0                       |           0                       |           0                       |           0                       |           0                       |           0                       |           0                       |           0                       |           0                       |           0                       |           0                       |           0                       |           0                       |           0                       |           0                       |           0                       |           0                       |           0                       |           0                       |           0                       |           0                       |           0                       |           0                       |           0                       |           0                       |           0                       |           0                       |           0                       |           0                       |           0                       |           0                       |           0                       |           0                       |           0                       |           0                       |           0                       |           0                       |           0                       |           0                       |           0                       |           0                       |           0                       |           0                       |           0                       |           0                       |           0                       |           0                       |           0                       |           0                       |           0                       |           0                       |           0                       |           0                       |           0                       |           0                       |           0                       |           0                       |           0                       |           0                       |           0                       |           0                       |           0                       |           0                       |           0                       |           0                       |           0                       |           0                       |           0                       |           0                       |           0                       |           0                       |           0                       |           0                       |           0                       |           0                       |           0                       |           0                       |           0                       |           0                       |           0                       |           0                       |           0                       |           0                       |           0                       |           0                       |           0                       |           0                       |           0                       |           0                       |           0                       |           0                       |           0                       |           0                       |           0                       |           0                       |           0                       |           0                       |           0                       |           0                       |           0                       |           0                       |           0                       |           0                       |           0                       |           0                       |           0                       |           0                       |           0                       |           0                       |           0                       |           0                       |           0                       |           0                       |           0                       |           0                       |           0                       |           0                       |           0                       |           0                       |           0                       |           0                       |           0                       |           0                       |           0                       # Coalsr-to-coalsr time for the Nth cache block in an inst (Unspecified)
system.Shader.cacheBlockRoundTrip9::overflows            0                       # Coalsr-to-coalsr time for the Nth cache block in an inst (Unspecified)
system.Shader.cacheBlockRoundTrip9::min_value            0                       # Coalsr-to-coalsr time for the Nth cache block in an inst (Unspecified)
system.Shader.cacheBlockRoundTrip9::max_value            0                       # Coalsr-to-coalsr time for the Nth cache block in an inst (Unspecified)
system.Shader.cacheBlockRoundTrip9::total            0                       # Coalsr-to-coalsr time for the Nth cache block in an inst (Unspecified)
system.l1_coalescer0.coalesced_accesses           152                       # Number of coalesced TLB accesses (Unspecified)
system.l1_coalescer0.latency               593.690789                       # Avg. latency over all incoming pkts (Unspecified)
system.l1_coalescer0.local_cycles             5775424                       # Number of cycles spent in queue for all incoming reqs (Unspecified)
system.l1_coalescer0.local_latency         359.901316                       # Avg. latency over all incoming pkts (Unspecified)
system.l1_coalescer0.local_queuing_cycles      3501120                       # Number of cycles spent in queue for all incoming reqs (Unspecified)
system.l1_coalescer0.queuing_cycles           3501120                       # Number of cycles spent in queue (Unspecified)
system.l1_coalescer0.uncoalesced_accesses         9728                       # Number of uncoalesced TLB accesses (Unspecified)
system.l1_coalescer1.coalesced_accesses           110                       # Number of coalesced TLB accesses (Unspecified)
system.l1_coalescer1.latency               800.792388                       # Avg. latency over all incoming pkts (Unspecified)
system.l1_coalescer1.local_cycles             5554296                       # Number of cycles spent in queue for all incoming reqs (Unspecified)
system.l1_coalescer1.local_latency         483.584775                       # Avg. latency over all incoming pkts (Unspecified)
system.l1_coalescer1.local_queuing_cycles      3354144                       # Number of cycles spent in queue for all incoming reqs (Unspecified)
system.l1_coalescer1.queuing_cycles           3354144                       # Number of cycles spent in queue (Unspecified)
system.l1_coalescer1.uncoalesced_accesses         6936                       # Number of uncoalesced TLB accesses (Unspecified)
system.l1_coalescer2.coalesced_accesses           110                       # Number of coalesced TLB accesses (Unspecified)
system.l1_coalescer2.latency               794.735429                       # Avg. latency over all incoming pkts (Unspecified)
system.l1_coalescer2.local_cycles             5563148                       # Number of cycles spent in queue for all incoming reqs (Unspecified)
system.l1_coalescer2.local_latency         479.614286                       # Avg. latency over all incoming pkts (Unspecified)
system.l1_coalescer2.local_queuing_cycles      3357300                       # Number of cycles spent in queue for all incoming reqs (Unspecified)
system.l1_coalescer2.queuing_cycles           3357300                       # Number of cycles spent in queue (Unspecified)
system.l1_coalescer2.uncoalesced_accesses         7000                       # Number of uncoalesced TLB accesses (Unspecified)
system.l1_coalescer3.coalesced_accesses           110                       # Number of coalesced TLB accesses (Unspecified)
system.l1_coalescer3.latency               793.772727                       # Avg. latency over all incoming pkts (Unspecified)
system.l1_coalescer3.local_cycles             5588160                       # Number of cycles spent in queue for all incoming reqs (Unspecified)
system.l1_coalescer3.local_latency         481.663636                       # Avg. latency over all incoming pkts (Unspecified)
system.l1_coalescer3.local_queuing_cycles      3390912                       # Number of cycles spent in queue for all incoming reqs (Unspecified)
system.l1_coalescer3.queuing_cycles           3390912                       # Number of cycles spent in queue (Unspecified)
system.l1_coalescer3.uncoalesced_accesses         7040                       # Number of uncoalesced TLB accesses (Unspecified)
system.l2_coalescer.coalesced_accesses             71                       # Number of coalesced TLB accesses (Unspecified)
system.l2_coalescer.latency               1225.637931                       # Avg. latency over all incoming pkts (Unspecified)
system.l2_coalescer.local_cycles               142174                       # Number of cycles spent in queue for all incoming reqs (Unspecified)
system.l2_coalescer.local_latency          364.913793                       # Avg. latency over all incoming pkts (Unspecified)
system.l2_coalescer.local_queuing_cycles        42330                       # Number of cycles spent in queue for all incoming reqs (Unspecified)
system.l2_coalescer.queuing_cycles            2708885                       # Number of cycles spent in queue (Unspecified)
system.l2_coalescer.uncoalesced_accesses          116                       # Number of uncoalesced TLB accesses (Unspecified)
system.l3_coalescer.coalesced_accesses             33                       # Number of coalesced TLB accesses (Unspecified)
system.l3_coalescer.latency               1274.818182                       # Avg. latency over all incoming pkts (Unspecified)
system.l3_coalescer.local_cycles                42069                       # Number of cycles spent in queue for all incoming reqs (Unspecified)
system.l3_coalescer.local_latency                   1                       # Avg. latency over all incoming pkts (Unspecified)
system.l3_coalescer.local_queuing_cycles           33                       # Number of cycles spent in queue for all incoming reqs (Unspecified)
system.l3_coalescer.queuing_cycles               4436                       # Number of cycles spent in queue (Unspecified)
system.l3_coalescer.uncoalesced_accesses           33                       # Number of uncoalesced TLB accesses (Unspecified)
system.scalar_coalescer.coalesced_accesses         3388                       # Number of coalesced TLB accesses (Unspecified)
system.scalar_coalescer.latency             67.441242                       # Avg. latency over all incoming pkts (Unspecified)
system.scalar_coalescer.local_cycles           362699                       # Number of cycles spent in queue for all incoming reqs (Unspecified)
system.scalar_coalescer.local_latency       65.462068                       # Avg. latency over all incoming pkts (Unspecified)
system.scalar_coalescer.local_queuing_cycles       352055                       # Number of cycles spent in queue for all incoming reqs (Unspecified)
system.scalar_coalescer.queuing_cycles         352055                       # Number of cycles spent in queue (Unspecified)
system.scalar_coalescer.uncoalesced_accesses         5378                       # Number of uncoalesced TLB accesses (Unspecified)
system.sqc_coalescer.coalesced_accesses          5266                       # Number of coalesced TLB accesses (Unspecified)
system.sqc_coalescer.latency                48.790575                       # Avg. latency over all incoming pkts (Unspecified)
system.sqc_coalescer.local_cycles              415159                       # Number of cycles spent in queue for all incoming reqs (Unspecified)
system.sqc_coalescer.local_latency          45.264426                       # Avg. latency over all incoming pkts (Unspecified)
system.sqc_coalescer.local_queuing_cycles       385155                       # Number of cycles spent in queue for all incoming reqs (Unspecified)
system.sqc_coalescer.queuing_cycles            385155                       # Number of cycles spent in queue (Unspecified)
system.sqc_coalescer.uncoalesced_accesses         8509                       # Number of uncoalesced TLB accesses (Unspecified)

---------- End Simulation Statistics   ----------
