gem5 Simulator System.  https://www.gem5.org
gem5 is copyrighted software; use the --copyright option for details.

gem5 version 24.0.0.0
gem5 compiled Jul 25 2024 19:45:59
gem5 started Jul 31 2024 17:19:28
gem5 executing on codespaces-1d9eeb, pid 5527
command line: gem5 -re --outdir=simpoint-checkpoint-m5out simpoint-checkpoint.py

Global frequency set at 1000000000000 ticks per second
Writing checkpoint
Writing checkpoint
Writing checkpoint
Simulation Done
